1691
  -OEChem-11121519512D

 68 72  0     1  0  0  0  0  0999 V2000
    5.9812    0.5043    0.0000 O   0  0  0  0  0  0  0  0  0  0  0  0
    4.2493    0.5243    0.0000 O   0  0  0  0  0  0  0  0  0  0  0  0
    4.5669   -2.9191    0.0000 O   0  0  0  0  0  0  0  0  0  0  0  0
    2.5405    2.5442    0.0000 O   0  0  0  0  0  0  0  0  0  0  0  0
    7.7296    0.4697    0.0000 O   0  0  0  0  0  0  0  0  0  0  0  0
    7.7296   -3.5303    0.0000 O   0  0  0  0  0  0  0  0  0  0  0  0
    3.5603   -1.1909    0.0000 O   0  0  0  0  0  0  0  0  0  0  0  0
    2.5670   -2.9268    0.0000 O   0  0  0  0  0  0  0  0  0  0  0  0
    9.4780    0.5043    0.0000 O   0  0  0  0  0  0  0  0  0  0  0  0
    9.4780   -3.5649    0.0000 O   0  0  0  0  0  0  0  0  0  0  0  0
   11.3153    0.5474    0.0000 O   0  0  0  0  0  0  0  0  0  0  0  0
    4.2840    3.5241    0.0000 N   0  0  0  0  0  0  0  0  0  0  0  0
    5.9697   -0.4956    0.0000 C   0  0  3  0  0  0  0  0  0  0  0  0
    5.0636   -2.0511    0.0000 C   0  0  3  0  0  0  0  0  0  0  0  0
    5.0636   -1.0095    0.0000 C   0  0  0  0  0  0  0  0  0  0  0  0
    5.9697   -2.5650    0.0000 C   0  0  0  0  0  0  0  0  0  0  0  0
    6.8636   -1.0303    0.0000 C   0  0  0  0  0  0  0  0  0  0  0  0
    6.8636   -2.0303    0.0000 C   0  0  0  0  0  0  0  0  0  0  0  0
    5.1210    1.0143    0.0000 C   0  0  3  0  0  0  0  0  0  0  0  0
    5.1326    2.0142    0.0000 C   0  0  0  0  0  0  0  0  0  0  0  0
    4.2724    2.5242    0.0000 C   0  0  3  0  0  0  0  0  0  0  0  0
    3.4007    2.0342    0.0000 C   0  0  3  0  0  0  0  0  0  0  0  0
    3.3891    1.0343    0.0000 C   0  0  3  0  0  0  0  0  0  0  0  0
    7.7296   -0.5303    0.0000 C   0  0  0  0  0  0  0  0  0  0  0  0
    4.0636   -2.0550    0.0000 C   0  0  0  0  0  0  0  0  0  0  0  0
    7.7296   -2.5303    0.0000 C   0  0  0  0  0  0  0  0  0  0  0  0
    8.5957   -1.0303    0.0000 C   0  0  0  0  0  0  0  0  0  0  0  0
    8.5957   -2.0303    0.0000 C   0  0  0  0  0  0  0  0  0  0  0  0
    2.5174    0.5443    0.0000 C   0  0  0  0  0  0  0  0  0  0  0  0
    3.5670   -2.9229    0.0000 C   0  0  0  0  0  0  0  0  0  0  0  0
    9.4896   -0.4956    0.0000 C   0  0  0  0  0  0  0  0  0  0  0  0
    9.4896   -2.5650    0.0000 C   0  0  0  0  0  0  0  0  0  0  0  0
   10.3957   -1.0095    0.0000 C   0  0  0  0  0  0  0  0  0  0  0  0
   10.3957   -2.0511    0.0000 C   0  0  0  0  0  0  0  0  0  0  0  0
   11.3268   -0.4526    0.0000 C   0  0  0  0  0  0  0  0  0  0  0  0
   11.3268   -2.6080    0.0000 C   0  0  0  0  0  0  0  0  0  0  0  0
   12.2706   -0.9878    0.0000 C   0  0  0  0  0  0  0  0  0  0  0  0
   12.2706   -2.0728    0.0000 C   0  0  0  0  0  0  0  0  0  0  0  0
   12.1754    1.0573    0.0000 C   0  0  0  0  0  0  0  0  0  0  0  0
    5.2377   -0.0636    0.0000 H   0  0  0  0  0  0  0  0  0  0  0  0
    4.8545   -0.4258    0.0000 H   0  0  0  0  0  0  0  0  0  0  0  0
    4.4527   -1.1156    0.0000 H   0  0  0  0  0  0  0  0  0  0  0  0
    5.5760   -3.0440    0.0000 H   0  0  0  0  0  0  0  0  0  0  0  0
    6.3743   -3.0348    0.0000 H   0  0  0  0  0  0  0  0  0  0  0  0
    5.8620    1.4307    0.0000 H   0  0  0  0  0  0  0  0  0  0  0  0
    5.7419    1.8995    0.0000 H   0  0  0  0  0  0  0  0  0  0  0  0
    5.3514    2.5943    0.0000 H   0  0  0  0  0  0  0  0  0  0  0  0
    3.5413    2.9577    0.0000 H   0  0  0  0  0  0  0  0  0  0  0  0
    2.6597    1.6178    0.0000 H   0  0  0  0  0  0  0  0  0  0  0  0
    3.3793    0.1844    0.0000 H   0  0  0  0  0  0  0  0  0  0  0  0
    4.8790   -3.4548    0.0000 H   0  0  0  0  0  0  0  0  0  0  0  0
    2.2136    1.0848    0.0000 H   0  0  0  0  0  0  0  0  0  0  0  0
    1.9769    0.2406    0.0000 H   0  0  0  0  0  0  0  0  0  0  0  0
    2.8211    0.0039    0.0000 H   0  0  0  0  0  0  0  0  0  0  0  0
    4.8245    3.8279    0.0000 H   0  0  0  0  0  0  0  0  0  0  0  0
    3.7507    3.8403    0.0000 H   0  0  0  0  0  0  0  0  0  0  0  0
    3.4616   -3.5339    0.0000 H   0  0  0  0  0  0  0  0  0  0  0  0
    4.1504   -3.1327    0.0000 H   0  0  0  0  0  0  0  0  0  0  0  0
    2.0000    2.2404    0.0000 H   0  0  0  0  0  0  0  0  0  0  0  0
    8.2666    0.7797    0.0000 H   0  0  0  0  0  0  0  0  0  0  0  0
    7.1927   -3.8403    0.0000 H   0  0  0  0  0  0  0  0  0  0  0  0
   11.3197   -3.2280    0.0000 H   0  0  0  0  0  0  0  0  0  0  0  0
    2.2590   -3.4649    0.0000 H   0  0  0  0  0  0  0  0  0  0  0  0
   12.8063   -0.6757    0.0000 H   0  0  0  0  0  0  0  0  0  0  0  0
   12.8063   -2.3849    0.0000 H   0  0  0  0  0  0  0  0  0  0  0  0
   12.4916    0.5240    0.0000 H   0  0  0  0  0  0  0  0  0  0  0  0
   12.7088    1.3735    0.0000 H   0  0  0  0  0  0  0  0  0  0  0  0
   11.8593    1.5907    0.0000 H   0  0  0  0  0  0  0  0  0  0  0  0
  1 13  1  0  0  0  0
  1 19  1  0  0  0  0
  2 19  1  0  0  0  0
  2 23  1  0  0  0  0
  3 14  1  0  0  0  0
  3 51  1  0  0  0  0
  4 22  1  0  0  0  0
  4 59  1  0  0  0  0
  5 24  1  0  0  0  0
  5 60  1  0  0  0  0
  6 26  1  0  0  0  0
  6 61  1  0  0  0  0
  7 25  2  0  0  0  0
  8 30  1  0  0  0  0
  8 63  1  0  0  0  0
  9 31  2  0  0  0  0
 10 32  2  0  0  0  0
 11 35  1  0  0  0  0
 11 39  1  0  0  0  0
 12 21  1  0  0  0  0
 12 55  1  0  0  0  0
 12 56  1  0  0  0  0
 13 15  1  0  0  0  0
 13 17  1  0  0  0  0
 13 40  1  0  0  0  0
 14 15  1  0  0  0  0
 14 16  1  0  0  0  0
 14 25  1  0  0  0  0
 15 41  1  0  0  0  0
 15 42  1  0  0  0  0
 16 18  1  0  0  0  0
 16 43  1  0  0  0  0
 16 44  1  0  0  0  0
 17 18  1  0  0  0  0
 17 24  2  0  0  0  0
 18 26  2  0  0  0  0
 19 20  1  0  0  0  0
 19 45  1  0  0  0  0
 20 21  1  0  0  0  0
 20 46  1  0  0  0  0
 20 47  1  0  0  0  0
 21 22  1  0  0  0  0
 21 48  1  0  0  0  0
 22 23  1  0  0  0  0
 22 49  1  0  0  0  0
 23 29  1  0  0  0  0
 23 50  1  0  0  0  0
 24 27  1  0  0  0  0
 25 30  1  0  0  0  0
 26 28  1  0  0  0  0
 27 28  2  0  0  0  0
 27 31  1  0  0  0  0
 28 32  1  0  0  0  0
 29 52  1  0  0  0  0
 29 53  1  0  0  0  0
 29 54  1  0  0  0  0
 30 57  1  0  0  0  0
 30 58  1  0  0  0  0
 31 33  1  0  0  0  0
 32 34  1  0  0  0  0
 33 34  2  0  0  0  0
 33 35  1  0  0  0  0
 34 36  1  0  0  0  0
 35 37  2  0  0  0  0
 36 38  2  0  0  0  0
 36 62  1  0  0  0  0
 37 38  1  0  0  0  0
 37 64  1  0  0  0  0
 38 65  1  0  0  0  0
 39 66  1  0  0  0  0
 39 67  1  0  0  0  0
 39 68  1  0  0  0  0
M  END
> <PUBCHEM_COMPOUND_CID>
1691

> <PUBCHEM_COMPOUND_CANONICALIZED>
1

> <PUBCHEM_CACTVS_COMPLEXITY>
977

> <PUBCHEM_CACTVS_HBOND_ACCEPTOR>
12

> <PUBCHEM_CACTVS_HBOND_DONOR>
6

> <PUBCHEM_CACTVS_ROTATABLE_BOND>
5

> <PUBCHEM_CACTVS_SUBSKEYS>
AAADceB6PAAAAAAAAAAAAAAAAAAAAAAAAAA0YMGCAAAAAADBQAAAHgAQCAAADHzxmAcyDoBABgCIAqBSAAICCAAkIAAIiIFGCMgfNzaGtRqicWAn8BEPuYfL7PzOwQADAAAYAADCAAYQADAAAAAAAAAAAA==

> <PUBCHEM_IUPAC_OPENEYE_NAME>
7-(4-amino-5-hydroxy-6-methyl-tetrahydropyran-2-yl)oxy-6,9,11-trihydroxy-9-(2-hydroxyacetyl)-4-methoxy-8,10-dihydro-7H-tetracene-5,12-dione

> <PUBCHEM_IUPAC_CAS_NAME>
7-[(4-amino-5-hydroxy-6-methyl-2-oxanyl)oxy]-6,9,11-trihydroxy-9-(2-hydroxy-1-oxoethyl)-4-methoxy-8,10-dihydro-7H-tetracene-5,12-dione

> <PUBCHEM_IUPAC_NAME>
7-(4-amino-5-hydroxy-6-methyloxan-2-yl)oxy-6,9,11-trihydroxy-9-(2-hydroxyacetyl)-4-methoxy-8,10-dihydro-7H-tetracene-5,12-dione

> <PUBCHEM_IUPAC_SYSTEMATIC_NAME>
7-(4-azanyl-6-methyl-5-oxidanyl-oxan-2-yl)oxy-4-methoxy-6,9,11-tris(oxidanyl)-9-(2-oxidanylethanoyl)-8,10-dihydro-7H-tetracene-5,12-dione

> <PUBCHEM_IUPAC_TRADITIONAL_NAME>
7-(4-amino-5-hydroxy-6-methyl-tetrahydropyran-2-yl)oxy-9-glycoloyl-6,9,11-trihydroxy-4-methoxy-8,10-dihydro-7H-tetracene-5,12-quinone

> <PUBCHEM_IUPAC_INCHI>
InChI=1S/C27H29NO11/c1-10-22(31)13(28)6-17(38-10)39-15-8-27(36,16(30)9-29)7-12-19(15)26(35)21-20(24(12)33)23(32)11-4-3-5-14(37-2)18(11)25(21)34/h3-5,10,13,15,17,22,29,31,33,35-36H,6-9,28H2,1-2H3

> <PUBCHEM_IUPAC_INCHIKEY>
AOJJSUZBOXZQNB-UHFFFAOYSA-N

> <PUBCHEM_XLOGP3>
1.3

> <PUBCHEM_EXACT_MASS>
543.174061

> <PUBCHEM_MOLECULAR_FORMULA>
C27H29NO11

> <PUBCHEM_MOLECULAR_WEIGHT>
543.51926

> <PUBCHEM_OPENEYE_CAN_SMILES>
CC1C(C(CC(O1)OC2CC(CC3=C(C4=C(C(=C23)O)C(=O)C5=C(C4=O)C=CC=C5OC)O)(C(=O)CO)O)N)O

> <PUBCHEM_OPENEYE_ISO_SMILES>
CC1C(C(CC(O1)OC2CC(CC3=C(C4=C(C(=C23)O)C(=O)C5=C(C4=O)C=CC=C5OC)O)(C(=O)CO)O)N)O

> <PUBCHEM_CACTVS_TPSA>
206

> <PUBCHEM_MONOISOTOPIC_WEIGHT>
543.174061

> <PUBCHEM_TOTAL_CHARGE>
0

> <PUBCHEM_HEAVY_ATOM_COUNT>
39

> <PUBCHEM_ATOM_DEF_STEREO_COUNT>
0

> <PUBCHEM_ATOM_UDEF_STEREO_COUNT>
6

> <PUBCHEM_BOND_DEF_STEREO_COUNT>
0

> <PUBCHEM_BOND_UDEF_STEREO_COUNT>
0

> <PUBCHEM_ISOTOPIC_ATOM_COUNT>
0

> <PUBCHEM_COMPONENT_COUNT>
1

> <PUBCHEM_CACTVS_TAUTO_COUNT>
81

> <PUBCHEM_COORDINATE_TYPE>
1
5
255

> <PUBCHEM_BONDANNOTATIONS>
13  40  3
14  25  3
17  18  8
17  24  8
18  26  8
19  45  3
21  48  3
22  49  3
23  50  3
24  27  8
26  28  8
27  28  8
33  34  8
33  35  8
34  36  8
35  37  8
36  38  8
37  38  8

$$$$
2719
  -OEChem-11121519512D

 48 49  0     1  0  0  0  0  0999 V2000
    9.8602    4.0068    0.0000 Cl  0  0  0  0  0  0  0  0  0  0  0  0
    3.7320   -2.5173    0.0000 N   0  0  0  0  0  0  0  0  0  0  0  0
    6.3301    0.9827    0.0000 N   0  0  0  0  0  0  0  0  0  0  0  0
    6.3301    3.9827    0.0000 N   0  0  0  0  0  0  0  0  0  0  0  0
    5.4641   -0.5173    0.0000 C   0  0  0  0  0  0  0  0  0  0  0  0
    4.5981   -1.0173    0.0000 C   0  0  0  0  0  0  0  0  0  0  0  0
    5.4641    0.4827    0.0000 C   0  0  3  0  0  0  0  0  0  0  0  0
    4.5981   -2.0173    0.0000 C   0  0  0  0  0  0  0  0  0  0  0  0
    4.5981    0.9827    0.0000 C   0  0  0  0  0  0  0  0  0  0  0  0
    3.7320   -3.5173    0.0000 C   0  0  0  0  0  0  0  0  0  0  0  0
    2.8660   -2.0173    0.0000 C   0  0  0  0  0  0  0  0  0  0  0  0
    6.3301    1.9827    0.0000 C   0  0  0  0  0  0  0  0  0  0  0  0
    7.1962    2.4827    0.0000 C   0  0  0  0  0  0  0  0  0  0  0  0
    2.8660   -4.0173    0.0000 C   0  0  0  0  0  0  0  0  0  0  0  0
    2.0000   -2.5173    0.0000 C   0  0  0  0  0  0  0  0  0  0  0  0
    5.4641    2.4827    0.0000 C   0  0  0  0  0  0  0  0  0  0  0  0
    7.1962    3.4827    0.0000 C   0  0  0  0  0  0  0  0  0  0  0  0
    8.0901    1.9480    0.0000 C   0  0  0  0  0  0  0  0  0  0  0  0
    5.4641    3.4827    0.0000 C   0  0  0  0  0  0  0  0  0  0  0  0
    8.0901    4.0173    0.0000 C   0  0  0  0  0  0  0  0  0  0  0  0
    8.9962    2.4618    0.0000 C   0  0  0  0  0  0  0  0  0  0  0  0
    8.9962    3.5035    0.0000 C   0  0  0  0  0  0  0  0  0  0  0  0
    5.6762   -1.0999    0.0000 H   0  0  0  0  0  0  0  0  0  0  0  0
    6.0747   -0.4097    0.0000 H   0  0  0  0  0  0  0  0  0  0  0  0
    4.3860   -0.4347    0.0000 H   0  0  0  0  0  0  0  0  0  0  0  0
    3.9875   -1.1250    0.0000 H   0  0  0  0  0  0  0  0  0  0  0  0
    5.4641    1.3327    0.0000 H   0  0  0  0  0  0  0  0  0  0  0  0
    4.8101   -2.5999    0.0000 H   0  0  0  0  0  0  0  0  0  0  0  0
    5.2087   -1.9097    0.0000 H   0  0  0  0  0  0  0  0  0  0  0  0
    6.8671    0.6727    0.0000 H   0  0  0  0  0  0  0  0  0  0  0  0
    4.9081    1.5196    0.0000 H   0  0  0  0  0  0  0  0  0  0  0  0
    4.0611    1.2927    0.0000 H   0  0  0  0  0  0  0  0  0  0  0  0
    4.2881    0.4457    0.0000 H   0  0  0  0  0  0  0  0  0  0  0  0
    3.9441   -4.0999    0.0000 H   0  0  0  0  0  0  0  0  0  0  0  0
    4.3426   -3.4097    0.0000 H   0  0  0  0  0  0  0  0  0  0  0  0
    3.2646   -1.5424    0.0000 H   0  0  0  0  0  0  0  0  0  0  0  0
    2.4675   -1.5424    0.0000 H   0  0  0  0  0  0  0  0  0  0  0  0
    1.6900   -1.9804    0.0000 H   0  0  0  0  0  0  0  0  0  0  0  0
    1.4631   -2.8273    0.0000 H   0  0  0  0  0  0  0  0  0  0  0  0
    2.3100   -3.0543    0.0000 H   0  0  0  0  0  0  0  0  0  0  0  0
    2.5560   -3.4804    0.0000 H   0  0  0  0  0  0  0  0  0  0  0  0
    2.3291   -4.3273    0.0000 H   0  0  0  0  0  0  0  0  0  0  0  0
    3.1760   -4.5543    0.0000 H   0  0  0  0  0  0  0  0  0  0  0  0
    4.9272    2.1727    0.0000 H   0  0  0  0  0  0  0  0  0  0  0  0
    8.0829    1.3280    0.0000 H   0  0  0  0  0  0  0  0  0  0  0  0
    4.9272    3.7927    0.0000 H   0  0  0  0  0  0  0  0  0  0  0  0
    8.0829    4.6373    0.0000 H   0  0  0  0  0  0  0  0  0  0  0  0
    9.5319    2.1498    0.0000 H   0  0  0  0  0  0  0  0  0  0  0  0
  1 22  1  0  0  0  0
  2  8  1  0  0  0  0
  2 10  1  0  0  0  0
  2 11  1  0  0  0  0
  3  7  1  0  0  0  0
  3 12  1  0  0  0  0
  3 30  1  0  0  0  0
  4 17  2  0  0  0  0
  4 19  1  0  0  0  0
  5  6  1  0  0  0  0
  5  7  1  0  0  0  0
  5 23  1  0  0  0  0
  5 24  1  0  0  0  0
  6  8  1  0  0  0  0
  6 25  1  0  0  0  0
  6 26  1  0  0  0  0
  7  9  1  0  0  0  0
  7 27  1  0  0  0  0
  8 28  1  0  0  0  0
  8 29  1  0  0  0  0
  9 31  1  0  0  0  0
  9 32  1  0  0  0  0
  9 33  1  0  0  0  0
 10 14  1  0  0  0  0
 10 34  1  0  0  0  0
 10 35  1  0  0  0  0
 11 15  1  0  0  0  0
 11 36  1  0  0  0  0
 11 37  1  0  0  0  0
 12 13  2  0  0  0  0
 12 16  1  0  0  0  0
 13 17  1  0  0  0  0
 13 18  1  0  0  0  0
 14 41  1  0  0  0  0
 14 42  1  0  0  0  0
 14 43  1  0  0  0  0
 15 38  1  0  0  0  0
 15 39  1  0  0  0  0
 15 40  1  0  0  0  0
 16 19  2  0  0  0  0
 16 44  1  0  0  0  0
 17 20  1  0  0  0  0
 18 21  2  0  0  0  0
 18 45  1  0  0  0  0
 19 46  1  0  0  0  0
 20 22  2  0  0  0  0
 20 47  1  0  0  0  0
 21 22  1  0  0  0  0
 21 48  1  0  0  0  0
M  END
> <PUBCHEM_COMPOUND_CID>
2719

> <PUBCHEM_COMPOUND_CANONICALIZED>
1

> <PUBCHEM_CACTVS_COMPLEXITY>
309

> <PUBCHEM_CACTVS_HBOND_ACCEPTOR>
3

> <PUBCHEM_CACTVS_HBOND_DONOR>
1

> <PUBCHEM_CACTVS_ROTATABLE_BOND>
8

> <PUBCHEM_CACTVS_SUBSKEYS>
AAADceB7AAAEAAAAAAAAAAAAAAAAAAAAAAA8QAAAAAAAAACx8AAAHAIQAAAADCrBHiQ+wPPIEACgAzRnRACCgCAxByAI2KA4ZpgIIOLB09GEJAhgkADIyAcQgIAOBAAAAAICAAAIAAAABAQAAAAAAAAAAA==

> <PUBCHEM_IUPAC_OPENEYE_NAME>
N4-(7-chloro-4-quinolyl)-N1,N1-diethyl-pentane-1,4-diamine

> <PUBCHEM_IUPAC_CAS_NAME>
N4-(7-chloro-4-quinolinyl)-N1,N1-diethylpentane-1,4-diamine

> <PUBCHEM_IUPAC_NAME>
4-N-(7-chloroquinolin-4-yl)-1-N,1-N-diethylpentane-1,4-diamine

> <PUBCHEM_IUPAC_SYSTEMATIC_NAME>
N4-(7-chloranylquinolin-4-yl)-N1,N1-diethyl-pentane-1,4-diamine

> <PUBCHEM_IUPAC_TRADITIONAL_NAME>
4-[(7-chloro-4-quinolyl)amino]pentyl-diethyl-amine

> <PUBCHEM_IUPAC_INCHI>
InChI=1S/C18H26ClN3/c1-4-22(5-2)12-6-7-14(3)21-17-10-11-20-18-13-15(19)8-9-16(17)18/h8-11,13-14H,4-7,12H2,1-3H3,(H,20,21)

> <PUBCHEM_IUPAC_INCHIKEY>
WHTVZRBIWZFKQO-UHFFFAOYSA-N

> <PUBCHEM_XLOGP3>
4.6

> <PUBCHEM_EXACT_MASS>
319.181526

> <PUBCHEM_MOLECULAR_FORMULA>
C18H26ClN3

> <PUBCHEM_MOLECULAR_WEIGHT>
319.87214

> <PUBCHEM_OPENEYE_CAN_SMILES>
CCN(CC)CCCC(C)NC1=C2C=CC(=CC2=NC=C1)Cl

> <PUBCHEM_OPENEYE_ISO_SMILES>
CCN(CC)CCCC(C)NC1=C2C=CC(=CC2=NC=C1)Cl

> <PUBCHEM_CACTVS_TPSA>
28.2

> <PUBCHEM_MONOISOTOPIC_WEIGHT>
319.181526

> <PUBCHEM_TOTAL_CHARGE>
0

> <PUBCHEM_HEAVY_ATOM_COUNT>
22

> <PUBCHEM_ATOM_DEF_STEREO_COUNT>
0

> <PUBCHEM_ATOM_UDEF_STEREO_COUNT>
1

> <PUBCHEM_BOND_DEF_STEREO_COUNT>
0

> <PUBCHEM_BOND_UDEF_STEREO_COUNT>
0

> <PUBCHEM_ISOTOPIC_ATOM_COUNT>
0

> <PUBCHEM_COMPONENT_COUNT>
1

> <PUBCHEM_CACTVS_TAUTO_COUNT>
6

> <PUBCHEM_COORDINATE_TYPE>
1
5
255

> <PUBCHEM_BONDANNOTATIONS>
12  13  8
12  16  8
13  17  8
13  18  8
16  19  8
17  20  8
18  21  8
20  22  8
21  22  8
4  17  8
4  19  8
7  27  3

$$$$
2767
  -OEChem-11121519512D

  9  6  0     0  0  0  0  0  0999 V2000
    3.3060    0.0000    0.0000 Pt  0  2  0  0  0  0  0  0  0  0  0  0
    2.5989    0.7071    0.0000 Cl  0  0  0  0  0  0  0  0  0  0  0  0
    4.0131   -0.7071    0.0000 Cl  0  0  0  0  0  0  0  0  0  0  0  0
    4.0131    0.7071    0.0000 N   0  5  0  0  0  0  0  0  0  0  0  0
    2.5989   -0.7071    0.0000 N   0  5  0  0  0  0  0  0  0  0  0  0
    4.6120    0.5466    0.0000 H   0  0  0  0  0  0  0  0  0  0  0  0
    3.8526    1.3060    0.0000 H   0  0  0  0  0  0  0  0  0  0  0  0
    2.0000   -0.5466    0.0000 H   0  0  0  0  0  0  0  0  0  0  0  0
    2.7593   -1.3060    0.0000 H   0  0  0  0  0  0  0  0  0  0  0  0
  1  2  1  0  0  0  0
  1  3  1  0  0  0  0
  4  6  1  0  0  0  0
  4  7  1  0  0  0  0
  5  8  1  0  0  0  0
  5  9  1  0  0  0  0
M  CHG  3   1   2   4  -1   5  -1
M  END
> <PUBCHEM_COMPOUND_CID>
2767

> <PUBCHEM_COMPOUND_CANONICALIZED>
1

> <PUBCHEM_CACTVS_COMPLEXITY>
7.6

> <PUBCHEM_CACTVS_HBOND_ACCEPTOR>
2

> <PUBCHEM_CACTVS_HBOND_DONOR>
2

> <PUBCHEM_CACTVS_ROTATABLE_BOND>
0

> <PUBCHEM_CACTVS_SUBSKEYS>
AAADcYADAAAGAAAAAAAABAAAAAAAAAAAAAAAAAAAAAAAAAAAAAAAAAAQAAAAAAAAAAAAAAAAAAAAAAAAAAAAAAAAAAAAAAAAAAAAAAAAAAAAAAAAAAAAAAAAAAAAAAAAAAAAAAAAAAAAAAAAAAAAAAAAAA==

> <PUBCHEM_IUPAC_OPENEYE_NAME>
azanide;dichloroplatinum(2+)

> <PUBCHEM_IUPAC_CAS_NAME>
azanide;dichloroplatinum(2+)

> <PUBCHEM_IUPAC_NAME>
azanide;dichloroplatinum(2+)

> <PUBCHEM_IUPAC_SYSTEMATIC_NAME>
azanide;bis(chloranyl)platinum(2+)

> <PUBCHEM_IUPAC_TRADITIONAL_NAME>
azanide;dichloroplatinum(2+)

> <PUBCHEM_IUPAC_INCHI>
InChI=1S/2ClH.2H2N.Pt/h2*1H;2*1H2;/q;;2*-1;+4/p-2

> <PUBCHEM_IUPAC_INCHIKEY>
DQLATGHUWYMOKM-UHFFFAOYSA-L

> <PUBCHEM_EXACT_MASS>
296.939945

> <PUBCHEM_MOLECULAR_FORMULA>
Cl2H4N2Pt

> <PUBCHEM_MOLECULAR_WEIGHT>
298.03516

> <PUBCHEM_OPENEYE_CAN_SMILES>
[NH2-].[NH2-].Cl[Pt+2]Cl

> <PUBCHEM_OPENEYE_ISO_SMILES>
[NH2-].[NH2-].Cl[Pt+2]Cl

> <PUBCHEM_CACTVS_TPSA>
2

> <PUBCHEM_MONOISOTOPIC_WEIGHT>
296.939945

> <PUBCHEM_TOTAL_CHARGE>
0

> <PUBCHEM_HEAVY_ATOM_COUNT>
5

> <PUBCHEM_ATOM_DEF_STEREO_COUNT>
0

> <PUBCHEM_ATOM_UDEF_STEREO_COUNT>
0

> <PUBCHEM_BOND_DEF_STEREO_COUNT>
0

> <PUBCHEM_BOND_UDEF_STEREO_COUNT>
0

> <PUBCHEM_ISOTOPIC_ATOM_COUNT>
0

> <PUBCHEM_COMPONENT_COUNT>
3

> <PUBCHEM_CACTVS_TAUTO_COUNT>
1

> <PUBCHEM_NONSTANDARDBOND>
1  4  6
1  5  6

> <PUBCHEM_COORDINATE_TYPE>
1
5
255

$$$$
3143
  -OEChem-11121519512D

111116  0     1  0  0  0  0  0999 V2000
    5.1483   -5.9217    0.0000 O   0  0  0  0  0  0  0  0  0  0  0  0
    6.3053   -4.6592    0.0000 O   0  0  0  0  0  0  0  0  0  0  0  0
    7.0654   -3.2960    0.0000 O   0  0  0  0  0  0  0  0  0  0  0  0
    7.4821   -2.1133    0.0000 O   0  0  0  0  0  0  0  0  0  0  0  0
    2.4962   -3.2651    0.0000 O   0  0  0  0  0  0  0  0  0  0  0  0
    2.8690   -2.1133    0.0000 O   0  0  0  0  0  0  0  0  0  0  0  0
    3.5446   -0.4823    0.0000 O   0  0  0  0  0  0  0  0  0  0  0  0
    7.5875    0.2987    0.0000 O   0  0  0  0  0  0  0  0  0  0  0  0
    7.5913   -5.8195    0.0000 O   0  0  0  0  0  0  0  0  0  0  0  0
    7.5138   -4.9689    0.0000 O   0  0  0  0  0  0  0  0  0  0  0  0
    6.3628    1.5234    0.0000 O   0  0  0  0  0  0  0  0  0  0  0  0
    9.0017    1.7129    0.0000 O   0  0  0  0  0  0  0  0  0  0  0  0
    5.5863    4.4212    0.0000 O   0  0  0  0  0  0  0  0  0  0  0  0
    7.2593    4.8695    0.0000 O   0  0  0  0  0  0  0  0  0  0  0  0
    6.8110    3.1965    0.0000 N   0  0  0  0  0  0  0  0  0  0  0  0
    5.1755   -3.4198    0.0000 C   0  0  3  0  0  0  0  0  0  0  0  0
    5.3274   -4.4503    0.0000 C   0  0  3  0  0  0  0  0  0  0  0  0
    4.2517   -3.0372    0.0000 C   0  0  3  0  0  0  0  0  0  0  0  0
    4.5059   -5.0908    0.0000 C   0  0  3  0  0  0  0  0  0  0  0  0
    6.0994   -3.0372    0.0000 C   0  0  3  0  0  0  0  0  0  0  0  0
    6.4821   -2.1133    0.0000 C   0  0  3  0  0  0  0  0  0  0  0  0
    3.4156   -3.6584    0.0000 C   0  0  3  0  0  0  0  0  0  0  0  0
    3.5436   -4.6922    0.0000 C   0  0  0  0  0  0  0  0  0  0  0  0
    6.0994   -1.1894    0.0000 C   0  0  0  0  0  0  0  0  0  0  0  0
    5.9766   -5.2760    0.0000 C   0  0  0  0  0  0  0  0  0  0  0  0
    3.8690   -2.1133    0.0000 C   0  0  0  0  0  0  0  0  0  0  0  0
    7.1552   -1.3716    0.0000 C   0  0  0  0  0  0  0  0  0  0  0  0
    5.1755   -0.8067    0.0000 C   0  0  0  0  0  0  0  0  0  0  0  0
    3.3278   -2.6545    0.0000 C   0  0  0  0  0  0  0  0  0  0  0  0
    4.2517   -1.1894    0.0000 C   0  0  3  0  0  0  0  0  0  0  0  0
    6.8804   -0.4084    0.0000 C   0  0  3  0  0  0  0  0  0  0  0  0
    5.9172   -0.1336    0.0000 C   0  0  0  0  0  0  0  0  0  0  0  0
    6.3971   -0.0786    0.0000 C   0  0  0  0  0  0  0  0  0  0  0  0
    7.2102   -0.8917    0.0000 C   0  0  0  0  0  0  0  0  0  0  0  0
    5.6897    0.8402    0.0000 C   0  0  0  0  0  0  0  0  0  0  0  0
    6.6134   -5.6106    0.0000 C   0  0  0  0  0  0  0  0  0  0  0  0
    7.7724   -4.0031    0.0000 C   0  0  0  0  0  0  0  0  0  0  0  0
    5.9435   -6.3531    0.0000 C   0  0  0  0  0  0  0  0  0  0  0  0
    7.3287    1.2646    0.0000 C   0  0  0  0  0  0  0  0  0  0  0  0
    8.7384   -3.7442    0.0000 C   0  0  0  0  0  0  0  0  0  0  0  0
    8.0358    1.9717    0.0000 C   0  0  3  0  0  0  0  0  0  0  0  0
    8.9972   -2.7783    0.0000 C   0  0  0  0  0  0  0  0  0  0  0  0
    9.4455   -4.4514    0.0000 C   0  0  0  0  0  0  0  0  0  0  0  0
    7.7770    2.9377    0.0000 C   0  0  3  0  0  0  0  0  0  0  0  0
    9.9631   -2.5195    0.0000 C   0  0  0  0  0  0  0  0  0  0  0  0
   10.4114   -4.1925    0.0000 C   0  0  0  0  0  0  0  0  0  0  0  0
   10.6702   -3.2266    0.0000 C   0  0  0  0  0  0  0  0  0  0  0  0
    8.4841    3.6448    0.0000 C   0  0  0  0  0  0  0  0  0  0  0  0
    9.4500    3.3860    0.0000 C   0  0  0  0  0  0  0  0  0  0  0  0
    8.2253    4.6107    0.0000 C   0  0  0  0  0  0  0  0  0  0  0  0
    6.5522    4.1624    0.0000 C   0  0  0  0  0  0  0  0  0  0  0  0
   10.1571    4.0930    0.0000 C   0  0  0  0  0  0  0  0  0  0  0  0
    8.9324    5.3178    0.0000 C   0  0  0  0  0  0  0  0  0  0  0  0
    9.8983    5.0590    0.0000 C   0  0  0  0  0  0  0  0  0  0  0  0
    5.3275    5.3872    0.0000 C   0  0  0  0  0  0  0  0  0  0  0  0
    5.0687    6.3531    0.0000 C   0  0  0  0  0  0  0  0  0  0  0  0
    4.3616    5.1283    0.0000 C   0  0  0  0  0  0  0  0  0  0  0  0
    6.2934    5.6460    0.0000 C   0  0  0  0  0  0  0  0  0  0  0  0
    5.7148   -3.7257    0.0000 H   0  0  0  0  0  0  0  0  0  0  0  0
    4.1294   -5.5834    0.0000 H   0  0  0  0  0  0  0  0  0  0  0  0
    6.1400   -3.6558    0.0000 H   0  0  0  0  0  0  0  0  0  0  0  0
    2.9201   -4.0311    0.0000 H   0  0  0  0  0  0  0  0  0  0  0  0
    2.9243   -4.6620    0.0000 H   0  0  0  0  0  0  0  0  0  0  0  0
    3.4078   -5.2971    0.0000 H   0  0  0  0  0  0  0  0  0  0  0  0
    6.3585   -5.7644    0.0000 H   0  0  0  0  0  0  0  0  0  0  0  0
    6.4645   -4.8934    0.0000 H   0  0  0  0  0  0  0  0  0  0  0  0
    7.5297   -1.8657    0.0000 H   0  0  0  0  0  0  0  0  0  0  0  0
    7.7099   -1.0945    0.0000 H   0  0  0  0  0  0  0  0  0  0  0  0
    3.5650   -2.0817    0.0000 H   0  0  0  0  0  0  0  0  0  0  0  0
    2.7550   -2.4172    0.0000 H   0  0  0  0  0  0  0  0  0  0  0  0
    3.0905   -3.2273    0.0000 H   0  0  0  0  0  0  0  0  0  0  0  0
    4.3726   -0.5813    0.0000 H   0  0  0  0  0  0  0  0  0  0  0  0
    7.4806   -0.5640    0.0000 H   0  0  0  0  0  0  0  0  0  0  0  0
    6.9959   -0.2390    0.0000 H   0  0  0  0  0  0  0  0  0  0  0  0
    6.5575    0.5203    0.0000 H   0  0  0  0  0  0  0  0  0  0  0  0
    5.7982    0.0819    0.0000 H   0  0  0  0  0  0  0  0  0  0  0  0
    7.3707   -1.4906    0.0000 H   0  0  0  0  0  0  0  0  0  0  0  0
    7.8091   -0.7313    0.0000 H   0  0  0  0  0  0  0  0  0  0  0  0
    7.0498   -0.2929    0.0000 H   0  0  0  0  0  0  0  0  0  0  0  0
    7.7921   -1.5763    0.0000 H   0  0  0  0  0  0  0  0  0  0  0  0
    2.0000   -3.6368    0.0000 H   0  0  0  0  0  0  0  0  0  0  0  0
    6.2935    0.9812    0.0000 H   0  0  0  0  0  0  0  0  0  0  0  0
    5.5487    1.4439    0.0000 H   0  0  0  0  0  0  0  0  0  0  0  0
    5.0860    0.6991    0.0000 H   0  0  0  0  0  0  0  0  0  0  0  0
    3.7050    0.1166    0.0000 H   0  0  0  0  0  0  0  0  0  0  0  0
    5.4832   -5.9377    0.0000 H   0  0  0  0  0  0  0  0  0  0  0  0
    5.5282   -6.8134    0.0000 H   0  0  0  0  0  0  0  0  0  0  0  0
    6.4038   -6.7684    0.0000 H   0  0  0  0  0  0  0  0  0  0  0  0
    8.4742    2.4101    0.0000 H   0  0  0  0  0  0  0  0  0  0  0  0
    8.5588   -2.3399    0.0000 H   0  0  0  0  0  0  0  0  0  0  0  0
    9.2850   -5.0502    0.0000 H   0  0  0  0  0  0  0  0  0  0  0  0
    7.6165    3.5365    0.0000 H   0  0  0  0  0  0  0  0  0  0  0  0
   10.1236   -1.9206    0.0000 H   0  0  0  0  0  0  0  0  0  0  0  0
   10.8498   -4.6310    0.0000 H   0  0  0  0  0  0  0  0  0  0  0  0
    9.1622    1.1140    0.0000 H   0  0  0  0  0  0  0  0  0  0  0  0
   11.2691   -3.0662    0.0000 H   0  0  0  0  0  0  0  0  0  0  0  0
    6.3726    2.7581    0.0000 H   0  0  0  0  0  0  0  0  0  0  0  0
    9.6105    2.7871    0.0000 H   0  0  0  0  0  0  0  0  0  0  0  0
    7.6264    4.7712    0.0000 H   0  0  0  0  0  0  0  0  0  0  0  0
   10.7560    3.9326    0.0000 H   0  0  0  0  0  0  0  0  0  0  0  0
    8.7719    5.9167    0.0000 H   0  0  0  0  0  0  0  0  0  0  0  0
   10.3367    5.4974    0.0000 H   0  0  0  0  0  0  0  0  0  0  0  0
    5.6675    6.5135    0.0000 H   0  0  0  0  0  0  0  0  0  0  0  0
    4.9082    6.9520    0.0000 H   0  0  0  0  0  0  0  0  0  0  0  0
    4.4698    6.1926    0.0000 H   0  0  0  0  0  0  0  0  0  0  0  0
    4.2011    5.7272    0.0000 H   0  0  0  0  0  0  0  0  0  0  0  0
    3.7627    4.9679    0.0000 H   0  0  0  0  0  0  0  0  0  0  0  0
    4.5220    4.5294    0.0000 H   0  0  0  0  0  0  0  0  0  0  0  0
    6.4539    5.0471    0.0000 H   0  0  0  0  0  0  0  0  0  0  0  0
    6.8923    5.8064    0.0000 H   0  0  0  0  0  0  0  0  0  0  0  0
    6.1330    6.2448    0.0000 H   0  0  0  0  0  0  0  0  0  0  0  0
  1 19  1  0  0  0  0
  1 25  1  0  0  0  0
  2 17  1  0  0  0  0
  2 36  1  0  0  0  0
  3 20  1  0  0  0  0
  3 37  1  0  0  0  0
  4 21  1  0  0  0  0
  4 80  1  0  0  0  0
  5 22  1  0  0  0  0
  5 81  1  0  0  0  0
  6 26  2  0  0  0  0
  7 30  1  0  0  0  0
  7 85  1  0  0  0  0
  8 31  1  0  0  0  0
  8 39  1  0  0  0  0
  9 36  2  0  0  0  0
 10 37  2  0  0  0  0
 11 39  2  0  0  0  0
 12 41  1  0  0  0  0
 12 95  1  0  0  0  0
 13 51  1  0  0  0  0
 13 55  1  0  0  0  0
 14 51  2  0  0  0  0
 15 44  1  0  0  0  0
 15 51  1  0  0  0  0
 15 97  1  0  0  0  0
 16 17  1  0  0  0  0
 16 18  1  0  0  0  0
 16 20  1  0  0  0  0
 16 59  1  0  0  0  0
 17 19  1  0  0  0  0
 17 25  1  0  0  0  0
 18 22  1  0  0  0  0
 18 26  1  0  0  0  0
 18 29  1  0  0  0  0
 19 23  1  0  0  0  0
 19 60  1  0  0  0  0
 20 21  1  0  0  0  0
 20 61  1  0  0  0  0
 21 24  1  0  0  0  0
 21 27  1  0  0  0  0
 22 23  1  0  0  0  0
 22 62  1  0  0  0  0
 23 63  1  0  0  0  0
 23 64  1  0  0  0  0
 24 28  1  0  0  0  0
 24 33  1  0  0  0  0
 24 34  1  0  0  0  0
 25 65  1  0  0  0  0
 25 66  1  0  0  0  0
 26 30  1  0  0  0  0
 27 31  1  0  0  0  0
 27 67  1  0  0  0  0
 27 68  1  0  0  0  0
 28 30  1  0  0  0  0
 28 32  2  0  0  0  0
 29 69  1  0  0  0  0
 29 70  1  0  0  0  0
 29 71  1  0  0  0  0
 30 72  1  0  0  0  0
 31 32  1  0  0  0  0
 31 73  1  0  0  0  0
 32 35  1  0  0  0  0
 33 74  1  0  0  0  0
 33 75  1  0  0  0  0
 33 76  1  0  0  0  0
 34 77  1  0  0  0  0
 34 78  1  0  0  0  0
 34 79  1  0  0  0  0
 35 82  1  0  0  0  0
 35 83  1  0  0  0  0
 35 84  1  0  0  0  0
 36 38  1  0  0  0  0
 37 40  1  0  0  0  0
 38 86  1  0  0  0  0
 38 87  1  0  0  0  0
 38 88  1  0  0  0  0
 39 41  1  0  0  0  0
 40 42  2  0  0  0  0
 40 43  1  0  0  0  0
 41 44  1  0  0  0  0
 41 89  1  0  0  0  0
 42 45  1  0  0  0  0
 42 90  1  0  0  0  0
 43 46  2  0  0  0  0
 43 91  1  0  0  0  0
 44 48  1  0  0  0  0
 44 92  1  0  0  0  0
 45 47  2  0  0  0  0
 45 93  1  0  0  0  0
 46 47  1  0  0  0  0
 46 94  1  0  0  0  0
 47 96  1  0  0  0  0
 48 49  2  0  0  0  0
 48 50  1  0  0  0  0
 49 52  1  0  0  0  0
 49 98  1  0  0  0  0
 50 53  2  0  0  0  0
 50 99  1  0  0  0  0
 52 54  2  0  0  0  0
 52100  1  0  0  0  0
 53 54  1  0  0  0  0
 53101  1  0  0  0  0
 54102  1  0  0  0  0
 55 56  1  0  0  0  0
 55 57  1  0  0  0  0
 55 58  1  0  0  0  0
 56103  1  0  0  0  0
 56104  1  0  0  0  0
 56105  1  0  0  0  0
 57106  1  0  0  0  0
 57107  1  0  0  0  0
 57108  1  0  0  0  0
 58109  1  0  0  0  0
 58110  1  0  0  0  0
 58111  1  0  0  0  0
M  END
> <PUBCHEM_COMPOUND_CID>
3143

> <PUBCHEM_COMPOUND_CANONICALIZED>
1

> <PUBCHEM_CACTVS_COMPLEXITY>
1660

> <PUBCHEM_CACTVS_HBOND_ACCEPTOR>
14

> <PUBCHEM_CACTVS_HBOND_DONOR>
5

> <PUBCHEM_CACTVS_ROTATABLE_BOND>
13

> <PUBCHEM_CACTVS_SUBSKEYS>
AAADcfB+PAAAAAAAAAAAAAAAAABIAAAAAAAwYMEAAAAaIACBQAAAHgAQCAAAD3zhmAYyCILABgCIAqDSGAKCAAAkAAAIiIFIDMkLNj6AtRmOcQhn9gEbuYfa7PzPgAAAAAAAAABCAAYQADCAAAAAAAAAAA==

> <PUBCHEM_IUPAC_INCHI>
InChI=1S/C43H53NO14/c1-22-26(55-37(51)32(48)30(24-15-11-9-12-16-24)44-38(52)58-39(3,4)5)20-43(53)35(56-36(50)25-17-13-10-14-18-25)33-41(8,34(49)31(47)29(22)40(43,6)7)27(46)19-28-42(33,21-54-28)57-23(2)45/h9-18,26-28,30-33,35,46-48,53H,19-21H2,1-8H3,(H,44,52)

> <PUBCHEM_IUPAC_INCHIKEY>
ZDZOTLJHXYCWBA-UHFFFAOYSA-N

> <PUBCHEM_XLOGP3>
1.6

> <PUBCHEM_EXACT_MASS>
807.346605

> <PUBCHEM_MOLECULAR_FORMULA>
C43H53NO14

> <PUBCHEM_MOLECULAR_WEIGHT>
807.87922

> <PUBCHEM_OPENEYE_CAN_SMILES>
CC1=C2C(C(=O)C3(C(CC4C(C3C(C(C2(C)C)(CC1OC(=O)C(C(C5=CC=CC=C5)NC(=O)OC(C)(C)C)O)O)OC(=O)C6=CC=CC=C6)(CO4)OC(=O)C)O)C)O

> <PUBCHEM_OPENEYE_ISO_SMILES>
CC1=C2C(C(=O)C3(C(CC4C(C3C(C(C2(C)C)(CC1OC(=O)C(C(C5=CC=CC=C5)NC(=O)OC(C)(C)C)O)O)OC(=O)C6=CC=CC=C6)(CO4)OC(=O)C)O)C)O

> <PUBCHEM_CACTVS_TPSA>
224

> <PUBCHEM_MONOISOTOPIC_WEIGHT>
807.346605

> <PUBCHEM_TOTAL_CHARGE>
0

> <PUBCHEM_HEAVY_ATOM_COUNT>
58

> <PUBCHEM_ATOM_DEF_STEREO_COUNT>
0

> <PUBCHEM_ATOM_UDEF_STEREO_COUNT>
11

> <PUBCHEM_BOND_DEF_STEREO_COUNT>
0

> <PUBCHEM_BOND_UDEF_STEREO_COUNT>
0

> <PUBCHEM_ISOTOPIC_ATOM_COUNT>
0

> <PUBCHEM_COMPONENT_COUNT>
1

> <PUBCHEM_CACTVS_TAUTO_COUNT>
18

> <PUBCHEM_COORDINATE_TYPE>
1
5
255

> <PUBCHEM_BONDANNOTATIONS>
41  12  3
44  15  3
16  20  3
18  29  3
19  23  3
17  2  3
20  3  3
21  4  3
40  42  8
40  43  8
42  45  8
43  46  8
45  47  8
46  47  8
48  49  8
48  50  8
49  52  8
22  5  3
50  53  8
52  54  8
53  54  8
30  7  3
31  8  3

$$$$
3310
  -OEChem-11121519512D

 74 80  0     1  0  0  0  0  0999 V2000
    4.2690   -0.2846    0.0000 O   0  0  0  0  0  0  0  0  0  0  0  0
    7.1990    0.7902    0.0000 O   0  0  0  0  0  0  0  0  0  0  0  0
    5.1350    1.2154    0.0000 O   0  0  0  0  0  0  0  0  0  0  0  0
    4.2529    3.7569    0.0000 O   0  0  0  0  0  0  0  0  0  0  0  0
    8.5826   -0.3238    0.0000 O   0  0  0  0  0  0  0  0  0  0  0  0
    2.5369    0.7154    0.0000 O   0  0  0  0  0  0  0  0  0  0  0  0
    6.0530    3.7638    0.0000 O   0  0  0  0  0  0  0  0  0  0  0  0
    2.5369    2.7154    0.0000 O   0  0  0  0  0  0  0  0  0  0  0  0
    3.4493   -4.0279    0.0000 O   0  0  0  0  0  0  0  0  0  0  0  0
    4.9012   -4.8662    0.0000 O   0  0  0  0  0  0  0  0  0  0  0  0
   10.3312   -1.7846    0.0000 O   0  0  0  0  0  0  0  0  0  0  0  0
    8.5991   -4.7846    0.0000 O   0  0  0  0  0  0  0  0  0  0  0  0
   10.3312   -3.7846    0.0000 O   0  0  0  0  0  0  0  0  0  0  0  0
    6.0010   -0.2846    0.0000 C   0  0  3  0  0  0  0  0  0  0  0  0
    6.8671   -0.7846    0.0000 C   0  0  3  0  0  0  0  0  0  0  0  0
    5.1350   -0.7846    0.0000 C   0  0  3  0  0  0  0  0  0  0  0  0
    6.8671   -1.7846    0.0000 C   0  0  3  0  0  0  0  0  0  0  0  0
    5.1350   -1.7846    0.0000 C   0  0  0  0  0  0  0  0  0  0  0  0
    6.0010   -2.2846    0.0000 C   0  0  0  0  0  0  0  0  0  0  0  0
    6.2102    0.6872    0.0000 C   0  0  0  0  0  0  0  0  0  0  0  0
    7.6041   -0.1175    0.0000 C   0  0  0  0  0  0  0  0  0  0  0  0
    4.2690    0.7154    0.0000 C   0  0  3  0  0  0  0  0  0  0  0  0
    7.7331   -2.2846    0.0000 C   0  0  0  0  0  0  0  0  0  0  0  0
    3.4030    1.2154    0.0000 C   0  0  3  0  0  0  0  0  0  0  0  0
    4.2690    2.7154    0.0000 C   0  0  3  0  0  0  0  0  0  0  0  0
    3.4030    2.2154    0.0000 C   0  0  3  0  0  0  0  0  0  0  0  0
    5.1350    2.2154    0.0000 C   0  0  3  0  0  0  0  0  0  0  0  0
    4.2250   -2.2915    0.0000 C   0  0  0  0  0  0  0  0  0  0  0  0
    6.0171   -3.3261    0.0000 C   0  0  0  0  0  0  0  0  0  0  0  0
    6.0450    2.7222    0.0000 C   0  0  0  0  0  0  0  0  0  0  0  0
    4.2170   -3.3331    0.0000 C   0  0  0  0  0  0  0  0  0  0  0  0
    5.1191   -3.8539    0.0000 C   0  0  0  0  0  0  0  0  0  0  0  0
    7.7331   -3.2846    0.0000 C   0  0  0  0  0  0  0  0  0  0  0  0
    8.5991   -1.7846    0.0000 C   0  0  0  0  0  0  0  0  0  0  0  0
    5.1510    4.2846    0.0000 C   0  0  3  0  0  0  0  0  0  0  0  0
    9.4651   -2.2846    0.0000 C   0  0  0  0  0  0  0  0  0  0  0  0
    8.5991   -3.7846    0.0000 C   0  0  0  0  0  0  0  0  0  0  0  0
    3.8713   -4.9735    0.0000 C   0  0  0  0  0  0  0  0  0  0  0  0
    9.4651   -3.2846    0.0000 C   0  0  0  0  0  0  0  0  0  0  0  0
    5.1471    5.2846    0.0000 C   0  0  0  0  0  0  0  0  0  0  0  0
   11.1972   -2.2846    0.0000 C   0  0  0  0  0  0  0  0  0  0  0  0
    7.7331   -5.2846    0.0000 C   0  0  0  0  0  0  0  0  0  0  0  0
    5.4999    0.0805    0.0000 H   0  0  0  0  0  0  0  0  0  0  0  0
    7.4338   -1.0361    0.0000 H   0  0  0  0  0  0  0  0  0  0  0  0
    5.1350   -0.1646    0.0000 H   0  0  0  0  0  0  0  0  0  0  0  0
    6.8671   -2.4046    0.0000 H   0  0  0  0  0  0  0  0  0  0  0  0
    6.2111    1.3072    0.0000 H   0  0  0  0  0  0  0  0  0  0  0  0
    5.5938    0.7532    0.0000 H   0  0  0  0  0  0  0  0  0  0  0  0
    3.7320    0.4054    0.0000 H   0  0  0  0  0  0  0  0  0  0  0  0
    3.4030    0.5954    0.0000 H   0  0  0  0  0  0  0  0  0  0  0  0
    3.7297    3.0212    0.0000 H   0  0  0  0  0  0  0  0  0  0  0  0
    3.4030    2.8354    0.0000 H   0  0  0  0  0  0  0  0  0  0  0  0
    5.6695    1.9012    0.0000 H   0  0  0  0  0  0  0  0  0  0  0  0
    3.6917   -1.9753    0.0000 H   0  0  0  0  0  0  0  0  0  0  0  0
    6.5576   -3.6299    0.0000 H   0  0  0  0  0  0  0  0  0  0  0  0
    6.2496    2.1369    0.0000 H   0  0  0  0  0  0  0  0  0  0  0  0
    6.6567    2.8236    0.0000 H   0  0  0  0  0  0  0  0  0  0  0  0
    7.1962   -3.5946    0.0000 H   0  0  0  0  0  0  0  0  0  0  0  0
    8.5991   -1.1646    0.0000 H   0  0  0  0  0  0  0  0  0  0  0  0
    4.6123    4.5915    0.0000 H   0  0  0  0  0  0  0  0  0  0  0  0
    2.0000    1.0254    0.0000 H   0  0  0  0  0  0  0  0  0  0  0  0
    2.5369    3.3354    0.0000 H   0  0  0  0  0  0  0  0  0  0  0  0
    3.2817   -5.1653    0.0000 H   0  0  0  0  0  0  0  0  0  0  0  0
    4.0000   -5.5800    0.0000 H   0  0  0  0  0  0  0  0  0  0  0  0
    5.7671    5.2870    0.0000 H   0  0  0  0  0  0  0  0  0  0  0  0
    5.1447    5.9046    0.0000 H   0  0  0  0  0  0  0  0  0  0  0  0
    4.5271    5.2822    0.0000 H   0  0  0  0  0  0  0  0  0  0  0  0
   10.3312   -4.4046    0.0000 H   0  0  0  0  0  0  0  0  0  0  0  0
   10.8872   -2.8216    0.0000 H   0  0  0  0  0  0  0  0  0  0  0  0
   11.7341   -2.5946    0.0000 H   0  0  0  0  0  0  0  0  0  0  0  0
   11.5072   -1.7477    0.0000 H   0  0  0  0  0  0  0  0  0  0  0  0
    7.4231   -4.7477    0.0000 H   0  0  0  0  0  0  0  0  0  0  0  0
    7.1962   -5.5946    0.0000 H   0  0  0  0  0  0  0  0  0  0  0  0
    8.0431   -5.8216    0.0000 H   0  0  0  0  0  0  0  0  0  0  0  0
  1 16  1  0  0  0  0
  1 22  1  0  0  0  0
  2 20  1  0  0  0  0
  2 21  1  0  0  0  0
  3 22  1  0  0  0  0
  3 27  1  0  0  0  0
  4 25  1  0  0  0  0
  4 35  1  0  0  0  0
  5 21  2  0  0  0  0
  6 24  1  0  0  0  0
  6 61  1  0  0  0  0
  7 30  1  0  0  0  0
  7 35  1  0  0  0  0
  8 26  1  0  0  0  0
  8 62  1  0  0  0  0
  9 31  1  0  0  0  0
  9 38  1  0  0  0  0
 10 32  1  0  0  0  0
 10 38  1  0  0  0  0
 11 36  1  0  0  0  0
 11 41  1  0  0  0  0
 12 37  1  0  0  0  0
 12 42  1  0  0  0  0
 13 39  1  0  0  0  0
 13 68  1  0  0  0  0
 14 15  1  0  0  0  0
 14 16  1  0  0  0  0
 14 20  1  0  0  0  0
 14 43  1  0  0  0  0
 15 17  1  0  0  0  0
 15 21  1  0  0  0  0
 15 44  1  0  0  0  0
 16 18  1  0  0  0  0
 16 45  1  0  0  0  0
 17 19  1  0  0  0  0
 17 23  1  0  0  0  0
 17 46  1  0  0  0  0
 18 19  1  0  0  0  0
 18 28  2  0  0  0  0
 19 29  2  0  0  0  0
 20 47  1  0  0  0  0
 20 48  1  0  0  0  0
 22 24  1  0  0  0  0
 22 49  1  0  0  0  0
 23 33  2  0  0  0  0
 23 34  1  0  0  0  0
 24 26  1  0  0  0  0
 24 50  1  0  0  0  0
 25 26  1  0  0  0  0
 25 27  1  0  0  0  0
 25 51  1  0  0  0  0
 26 52  1  0  0  0  0
 27 30  1  0  0  0  0
 27 53  1  0  0  0  0
 28 31  1  0  0  0  0
 28 54  1  0  0  0  0
 29 32  1  0  0  0  0
 29 55  1  0  0  0  0
 30 56  1  0  0  0  0
 30 57  1  0  0  0  0
 31 32  2  0  0  0  0
 33 37  1  0  0  0  0
 33 58  1  0  0  0  0
 34 36  2  0  0  0  0
 34 59  1  0  0  0  0
 35 40  1  0  0  0  0
 35 60  1  0  0  0  0
 36 39  1  0  0  0  0
 37 39  2  0  0  0  0
 38 63  1  0  0  0  0
 38 64  1  0  0  0  0
 40 65  1  0  0  0  0
 40 66  1  0  0  0  0
 40 67  1  0  0  0  0
 41 69  1  0  0  0  0
 41 70  1  0  0  0  0
 41 71  1  0  0  0  0
 42 72  1  0  0  0  0
 42 73  1  0  0  0  0
 42 74  1  0  0  0  0
M  END
> <PUBCHEM_COMPOUND_CID>
3310

> <PUBCHEM_COMPOUND_CANONICALIZED>
1

> <PUBCHEM_CACTVS_COMPLEXITY>
969

> <PUBCHEM_CACTVS_HBOND_ACCEPTOR>
13

> <PUBCHEM_CACTVS_HBOND_DONOR>
3

> <PUBCHEM_CACTVS_ROTATABLE_BOND>
5

> <PUBCHEM_CACTVS_SUBSKEYS>
AAADcfB4PAAAAAAAAAAAAAAAAAAAASJAAAA0aMECAAAAAEjRQAAAGgAACAAADRSwmAMyDoAABgCIAiDSCAACCAAgIAAAiAEGiIgdNzKGMRqicCMlwBUPuAfK6PyOoAABCAAQQADAAAYQADCAAAAAAAAAAA==

> <PUBCHEM_IUPAC_OPENEYE_NAME>
5-[(7,8-dihydroxy-2-methyl-4,4a,6,7,8,8a-hexahydropyrano[3,2-d][1,3]dioxin-6-yl)oxy]-9-(4-hydroxy-3,5-dimethoxy-phenyl)-5a,6,8a,9-tetrahydro-5H-isobenzofuro[6,5-f][1,3]benzodioxol-8-one

> <PUBCHEM_IUPAC_CAS_NAME>
5-[(7,8-dihydroxy-2-methyl-4,4a,6,7,8,8a-hexahydropyrano[3,2-d][1,3]dioxin-6-yl)oxy]-9-(4-hydroxy-3,5-dimethoxyphenyl)-5a,6,8a,9-tetrahydro-5H-isobenzofuro[6,5-f][1,3]benzodioxol-8-one

> <PUBCHEM_IUPAC_NAME>
5-[(7,8-dihydroxy-2-methyl-4,4a,6,7,8,8a-hexahydropyrano[3,2-d][1,3]dioxin-6-yl)oxy]-9-(4-hydroxy-3,5-dimethoxyphenyl)-5a,6,8a,9-tetrahydro-5H-[2]benzofuro[6,5-f][1,3]benzodioxol-8-one

> <PUBCHEM_IUPAC_SYSTEMATIC_NAME>
9-(3,5-dimethoxy-4-oxidanyl-phenyl)-5-[[2-methyl-7,8-bis(oxidanyl)-4,4a,6,7,8,8a-hexahydropyrano[3,2-d][1,3]dioxin-6-yl]oxy]-5a,6,8a,9-tetrahydro-5H-[2]benzofuro[6,5-f][1,3]benzodioxol-8-one

> <PUBCHEM_IUPAC_TRADITIONAL_NAME>
5-[(7,8-dihydroxy-2-methyl-4,4a,6,7,8,8a-hexahydropyrano[3,2-d][1,3]dioxin-6-yl)oxy]-9-(4-hydroxy-3,5-dimethoxy-phenyl)-5a,6,8a,9-tetrahydro-5H-isobenzofuro[6,5-f][1,3]benzodioxol-8-one

> <PUBCHEM_IUPAC_INCHI>
InChI=1S/C29H32O13/c1-11-36-9-20-27(40-11)24(31)25(32)29(41-20)42-26-14-7-17-16(38-10-39-17)6-13(14)21(22-15(26)8-37-28(22)33)12-4-18(34-2)23(30)19(5-12)35-3/h4-7,11,15,20-22,24-27,29-32H,8-10H2,1-3H3

> <PUBCHEM_IUPAC_INCHIKEY>
VJJPUSNTGOMMGY-UHFFFAOYSA-N

> <PUBCHEM_XLOGP3>
0.6

> <PUBCHEM_EXACT_MASS>
588.184291

> <PUBCHEM_MOLECULAR_FORMULA>
C29H32O13

> <PUBCHEM_MOLECULAR_WEIGHT>
588.55658

> <PUBCHEM_OPENEYE_CAN_SMILES>
CC1OCC2C(O1)C(C(C(O2)OC3C4COC(=O)C4C(C5=CC6=C(C=C35)OCO6)C7=CC(=C(C(=C7)OC)O)OC)O)O

> <PUBCHEM_OPENEYE_ISO_SMILES>
CC1OCC2C(O1)C(C(C(O2)OC3C4COC(=O)C4C(C5=CC6=C(C=C35)OCO6)C7=CC(=C(C(=C7)OC)O)OC)O)O

> <PUBCHEM_CACTVS_TPSA>
161

> <PUBCHEM_MONOISOTOPIC_WEIGHT>
588.184291

> <PUBCHEM_TOTAL_CHARGE>
0

> <PUBCHEM_HEAVY_ATOM_COUNT>
42

> <PUBCHEM_ATOM_DEF_STEREO_COUNT>
0

> <PUBCHEM_ATOM_UDEF_STEREO_COUNT>
10

> <PUBCHEM_BOND_DEF_STEREO_COUNT>
0

> <PUBCHEM_BOND_UDEF_STEREO_COUNT>
0

> <PUBCHEM_ISOTOPIC_ATOM_COUNT>
0

> <PUBCHEM_COMPONENT_COUNT>
1

> <PUBCHEM_CACTVS_TAUTO_COUNT>
4

> <PUBCHEM_COORDINATE_TYPE>
1
5
255

> <PUBCHEM_BONDANNOTATIONS>
16  1  3
22  1  3
14  20  3
15  21  3
17  23  3
18  19  8
18  28  8
19  29  8
23  33  8
23  34  8
27  30  3
28  31  8
29  32  8
31  32  8
33  37  8
34  36  8
35  40  3
36  39  8
37  39  8
25  4  3
24  6  3
26  8  3

$$$$
3385
  -OEChem-11121519512D

 12 12  0     0  0  0  0  0  0999 V2000
    2.0000    1.3100    0.0000 F   0  0  0  0  0  0  0  0  0  0  0  0
    2.0000   -0.6900    0.0000 O   0  0  0  0  0  0  0  0  0  0  0  0
    5.4641   -0.6900    0.0000 O   0  0  0  0  0  0  0  0  0  0  0  0
    3.7320   -0.6900    0.0000 N   0  0  0  0  0  0  0  0  0  0  0  0
    4.5981    0.8100    0.0000 N   0  0  0  0  0  0  0  0  0  0  0  0
    2.8660   -0.1900    0.0000 C   0  0  0  0  0  0  0  0  0  0  0  0
    4.5981   -0.1900    0.0000 C   0  0  0  0  0  0  0  0  0  0  0  0
    2.8660    0.8100    0.0000 C   0  0  0  0  0  0  0  0  0  0  0  0
    3.7320    1.3100    0.0000 C   0  0  0  0  0  0  0  0  0  0  0  0
    3.7320   -1.3100    0.0000 H   0  0  0  0  0  0  0  0  0  0  0  0
    5.1350    1.1200    0.0000 H   0  0  0  0  0  0  0  0  0  0  0  0
    3.7320    1.9300    0.0000 H   0  0  0  0  0  0  0  0  0  0  0  0
  1  8  1  0  0  0  0
  2  6  2  0  0  0  0
  3  7  2  0  0  0  0
  4  6  1  0  0  0  0
  4  7  1  0  0  0  0
  4 10  1  0  0  0  0
  5  7  1  0  0  0  0
  5  9  1  0  0  0  0
  5 11  1  0  0  0  0
  6  8  1  0  0  0  0
  8  9  2  0  0  0  0
  9 12  1  0  0  0  0
M  END
> <PUBCHEM_COMPOUND_CID>
3385

> <PUBCHEM_COMPOUND_CANONICALIZED>
1

> <PUBCHEM_CACTVS_COMPLEXITY>
199

> <PUBCHEM_CACTVS_HBOND_ACCEPTOR>
3

> <PUBCHEM_CACTVS_HBOND_DONOR>
2

> <PUBCHEM_CACTVS_ROTATABLE_BOND>
0

> <PUBCHEM_CACTVS_SUBSKEYS>
AAADcQBjMQAAAAAAAAAAAAAAAAAAAAAAAAAgAAAAAAAAAAAAAAAAHwAQAAAACADBgAQBAALAAACIAAFWUACAAAAAAAAAAIAIAECAAAAAAAAAAAAIByIAAMAAAAAAAAAAAAAAAAAAAAAAAAAAAAAAAAAAAA==

> <PUBCHEM_IUPAC_OPENEYE_NAME>
5-fluoro-1H-pyrimidine-2,4-dione

> <PUBCHEM_IUPAC_CAS_NAME>
5-fluoro-1H-pyrimidine-2,4-dione

> <PUBCHEM_IUPAC_NAME>
5-fluoro-1H-pyrimidine-2,4-dione

> <PUBCHEM_IUPAC_SYSTEMATIC_NAME>
5-fluoranyl-1H-pyrimidine-2,4-dione

> <PUBCHEM_IUPAC_TRADITIONAL_NAME>
5-fluorouracil

> <PUBCHEM_IUPAC_INCHI>
InChI=1S/C4H3FN2O2/c5-2-1-6-4(9)7-3(2)8/h1H,(H2,6,7,8,9)

> <PUBCHEM_IUPAC_INCHIKEY>
GHASVSINZRGABV-UHFFFAOYSA-N

> <PUBCHEM_XLOGP3>
-0.9

> <PUBCHEM_EXACT_MASS>
130.017856

> <PUBCHEM_MOLECULAR_FORMULA>
C4H3FN2O2

> <PUBCHEM_MOLECULAR_WEIGHT>
130.077223

> <PUBCHEM_OPENEYE_CAN_SMILES>
C1=C(C(=O)NC(=O)N1)F

> <PUBCHEM_OPENEYE_ISO_SMILES>
C1=C(C(=O)NC(=O)N1)F

> <PUBCHEM_CACTVS_TPSA>
58.2

> <PUBCHEM_MONOISOTOPIC_WEIGHT>
130.017856

> <PUBCHEM_TOTAL_CHARGE>
0

> <PUBCHEM_HEAVY_ATOM_COUNT>
9

> <PUBCHEM_ATOM_DEF_STEREO_COUNT>
0

> <PUBCHEM_ATOM_UDEF_STEREO_COUNT>
0

> <PUBCHEM_BOND_DEF_STEREO_COUNT>
0

> <PUBCHEM_BOND_UDEF_STEREO_COUNT>
0

> <PUBCHEM_ISOTOPIC_ATOM_COUNT>
0

> <PUBCHEM_COMPONENT_COUNT>
1

> <PUBCHEM_CACTVS_TAUTO_COUNT>
9

> <PUBCHEM_COORDINATE_TYPE>
1
5
255

> <PUBCHEM_BONDANNOTATIONS>
4  6  8
4  7  8
5  7  8
5  9  8
6  8  8
8  9  8

$$$$
3461
  -OEChem-11121519512D

 29 30  0     1  0  0  0  0  0999 V2000
    6.2068   -1.5947    0.0000 F   0  0  0  0  0  0  0  0  0  0  0  0
    5.8435   -0.4766    0.0000 F   0  0  0  0  0  0  0  0  0  0  0  0
    3.6377   -1.2857    0.0000 O   0  0  0  0  0  0  0  0  0  0  0  0
    5.5345   -3.0457    0.0000 O   0  0  0  0  0  0  0  0  0  0  0  0
    2.3644   -2.9412    0.0000 O   0  0  0  0  0  0  0  0  0  0  0  0
    2.7147    0.3021    0.0000 O   0  0  0  0  0  0  0  0  0  0  0  0
    4.4467    0.3021    0.0000 N   0  0  0  0  0  0  0  0  0  0  0  0
    3.5807    1.8021    0.0000 N   0  0  0  0  0  0  0  0  0  0  0  0
    4.4467    3.3021    0.0000 N   0  0  0  0  0  0  0  0  0  0  0  0
    4.9467   -2.2367    0.0000 C   0  0  3  0  0  0  0  0  0  0  0  0
    5.2558   -1.2857    0.0000 C   0  0  0  0  0  0  0  0  0  0  0  0
    3.9467   -2.2367    0.0000 C   0  0  3  0  0  0  0  0  0  0  0  0
    4.4467   -0.6979    0.0000 C   0  0  3  0  0  0  0  0  0  0  0  0
    3.3590   -3.0457    0.0000 C   0  0  0  0  0  0  0  0  0  0  0  0
    5.3128    0.8021    0.0000 C   0  0  0  0  0  0  0  0  0  0  0  0
    3.5807    0.8021    0.0000 C   0  0  0  0  0  0  0  0  0  0  0  0
    5.3128    1.8021    0.0000 C   0  0  0  0  0  0  0  0  0  0  0  0
    4.4467    2.3021    0.0000 C   0  0  0  0  0  0  0  0  0  0  0  0
    4.6653   -2.7891    0.0000 H   0  0  0  0  0  0  0  0  0  0  0  0
    3.3344   -2.1397    0.0000 H   0  0  0  0  0  0  0  0  0  0  0  0
    3.8943   -0.4164    0.0000 H   0  0  0  0  0  0  0  0  0  0  0  0
    3.1880   -3.6417    0.0000 H   0  0  0  0  0  0  0  0  0  0  0  0
    3.9162   -3.3175    0.0000 H   0  0  0  0  0  0  0  0  0  0  0  0
    5.2823   -3.6121    0.0000 H   0  0  0  0  0  0  0  0  0  0  0  0
    5.8497    0.4921    0.0000 H   0  0  0  0  0  0  0  0  0  0  0  0
    2.0000   -3.4428    0.0000 H   0  0  0  0  0  0  0  0  0  0  0  0
    5.8497    2.1121    0.0000 H   0  0  0  0  0  0  0  0  0  0  0  0
    4.9837    3.6121    0.0000 H   0  0  0  0  0  0  0  0  0  0  0  0
    3.9098    3.6121    0.0000 H   0  0  0  0  0  0  0  0  0  0  0  0
  1 11  1  0  0  0  0
  2 11  1  0  0  0  0
  3 12  1  0  0  0  0
  3 13  1  0  0  0  0
  4 10  1  0  0  0  0
  4 24  1  0  0  0  0
  5 14  1  0  0  0  0
  5 26  1  0  0  0  0
  6 16  2  0  0  0  0
  7 13  1  0  0  0  0
  7 15  1  0  0  0  0
  7 16  1  0  0  0  0
  8 16  1  0  0  0  0
  8 18  2  0  0  0  0
  9 18  1  0  0  0  0
  9 28  1  0  0  0  0
  9 29  1  0  0  0  0
 10 11  1  0  0  0  0
 10 12  1  0  0  0  0
 10 19  1  0  0  0  0
 11 13  1  0  0  0  0
 12 14  1  0  0  0  0
 12 20  1  0  0  0  0
 13 21  1  0  0  0  0
 14 22  1  0  0  0  0
 14 23  1  0  0  0  0
 15 17  2  0  0  0  0
 15 25  1  0  0  0  0
 17 18  1  0  0  0  0
 17 27  1  0  0  0  0
M  END
> <PUBCHEM_COMPOUND_CID>
3461

> <PUBCHEM_COMPOUND_CANONICALIZED>
1

> <PUBCHEM_CACTVS_COMPLEXITY>
426

> <PUBCHEM_CACTVS_HBOND_ACCEPTOR>
6

> <PUBCHEM_CACTVS_HBOND_DONOR>
3

> <PUBCHEM_CACTVS_ROTATABLE_BOND>
2

> <PUBCHEM_CACTVS_SUBSKEYS>
AAADccBzOYAAAAAAAAAAAAAAAAAAASAAAAAgAAAAAAAAAAAAAAAAHwAQCAAACBThgBYBAANABgCoACJmdACAAAEAAgAIAAAYABCBEAIAgAAOQAAHFgIDAACwMAIAAAAAAAAAAAAAAAAAAAAAAAAAAAAAAA==

> <PUBCHEM_IUPAC_OPENEYE_NAME>
4-amino-1-[3,3-difluoro-4-hydroxy-5-(hydroxymethyl)tetrahydrofuran-2-yl]pyrimidin-2-one

> <PUBCHEM_IUPAC_CAS_NAME>
4-amino-1-[3,3-difluoro-4-hydroxy-5-(hydroxymethyl)-2-oxolanyl]-2-pyrimidinone

> <PUBCHEM_IUPAC_NAME>
4-amino-1-[3,3-difluoro-4-hydroxy-5-(hydroxymethyl)oxolan-2-yl]pyrimidin-2-one

> <PUBCHEM_IUPAC_SYSTEMATIC_NAME>
4-azanyl-1-[3,3-bis(fluoranyl)-5-(hydroxymethyl)-4-oxidanyl-oxolan-2-yl]pyrimidin-2-one

> <PUBCHEM_IUPAC_TRADITIONAL_NAME>
4-amino-1-(3,3-difluoro-4-hydroxy-5-methylol-tetrahydrofuran-2-yl)pyrimidin-2-one

> <PUBCHEM_IUPAC_INCHI>
InChI=1S/C9H11F2N3O4/c10-9(11)6(16)4(3-15)18-7(9)14-2-1-5(12)13-8(14)17/h1-2,4,6-7,15-16H,3H2,(H2,12,13,17)

> <PUBCHEM_IUPAC_INCHIKEY>
SDUQYLNIPVEERB-UHFFFAOYSA-N

> <PUBCHEM_XLOGP3>
-1.5

> <PUBCHEM_EXACT_MASS>
263.071762

> <PUBCHEM_MOLECULAR_FORMULA>
C9H11F2N3O4

> <PUBCHEM_MOLECULAR_WEIGHT>
263.198146

> <PUBCHEM_OPENEYE_CAN_SMILES>
C1=CN(C(=O)N=C1N)C2C(C(C(O2)CO)O)(F)F

> <PUBCHEM_OPENEYE_ISO_SMILES>
C1=CN(C(=O)N=C1N)C2C(C(C(O2)CO)O)(F)F

> <PUBCHEM_CACTVS_TPSA>
108

> <PUBCHEM_MONOISOTOPIC_WEIGHT>
263.071762

> <PUBCHEM_TOTAL_CHARGE>
0

> <PUBCHEM_HEAVY_ATOM_COUNT>
18

> <PUBCHEM_ATOM_DEF_STEREO_COUNT>
0

> <PUBCHEM_ATOM_UDEF_STEREO_COUNT>
3

> <PUBCHEM_BOND_DEF_STEREO_COUNT>
0

> <PUBCHEM_BOND_UDEF_STEREO_COUNT>
0

> <PUBCHEM_ISOTOPIC_ATOM_COUNT>
0

> <PUBCHEM_COMPONENT_COUNT>
1

> <PUBCHEM_CACTVS_TAUTO_COUNT>
3

> <PUBCHEM_COORDINATE_TYPE>
1
5
255

> <PUBCHEM_BONDANNOTATIONS>
12  14  3
15  17  8
17  18  8
10  4  3
13  7  3
7  15  8
7  16  8
8  16  8
8  18  8

$$$$
5311
  -OEChem-11121519512D

 39 39  0     0  0  0  0  0  0999 V2000
    4.5981   -2.4050    0.0000 O   0  0  0  0  0  0  0  0  0  0  0  0
    5.4641    4.0950    0.0000 O   0  0  0  0  0  0  0  0  0  0  0  0
    7.1962    5.0950    0.0000 O   0  0  0  0  0  0  0  0  0  0  0  0
    2.8660   -2.4050    0.0000 N   0  0  0  0  0  0  0  0  0  0  0  0
    7.1962    4.0950    0.0000 N   0  0  0  0  0  0  0  0  0  0  0  0
    4.5981    0.5950    0.0000 C   0  0  0  0  0  0  0  0  0  0  0  0
    5.4641    1.0950    0.0000 C   0  0  0  0  0  0  0  0  0  0  0  0
    4.5981   -0.4050    0.0000 C   0  0  0  0  0  0  0  0  0  0  0  0
    5.4641    2.0950    0.0000 C   0  0  0  0  0  0  0  0  0  0  0  0
    3.7320   -0.9050    0.0000 C   0  0  0  0  0  0  0  0  0  0  0  0
    6.3301    2.5950    0.0000 C   0  0  0  0  0  0  0  0  0  0  0  0
    3.7320   -1.9050    0.0000 C   0  0  0  0  0  0  0  0  0  0  0  0
    6.3301    3.5950    0.0000 C   0  0  0  0  0  0  0  0  0  0  0  0
    2.8660   -3.4050    0.0000 C   0  0  0  0  0  0  0  0  0  0  0  0
    2.0000   -3.9050    0.0000 C   0  0  0  0  0  0  0  0  0  0  0  0
    3.7320   -3.9050    0.0000 C   0  0  0  0  0  0  0  0  0  0  0  0
    2.0000   -4.9050    0.0000 C   0  0  0  0  0  0  0  0  0  0  0  0
    3.7320   -4.9050    0.0000 C   0  0  0  0  0  0  0  0  0  0  0  0
    2.8660   -5.4050    0.0000 C   0  0  0  0  0  0  0  0  0  0  0  0
    4.3860    1.1776    0.0000 H   0  0  0  0  0  0  0  0  0  0  0  0
    3.9875    0.4873    0.0000 H   0  0  0  0  0  0  0  0  0  0  0  0
    5.6762    0.5124    0.0000 H   0  0  0  0  0  0  0  0  0  0  0  0
    6.0747    1.2027    0.0000 H   0  0  0  0  0  0  0  0  0  0  0  0
    4.8101   -0.9876    0.0000 H   0  0  0  0  0  0  0  0  0  0  0  0
    5.2087   -0.2973    0.0000 H   0  0  0  0  0  0  0  0  0  0  0  0
    5.2520    2.6776    0.0000 H   0  0  0  0  0  0  0  0  0  0  0  0
    4.8535    1.9873    0.0000 H   0  0  0  0  0  0  0  0  0  0  0  0
    3.5200   -0.3224    0.0000 H   0  0  0  0  0  0  0  0  0  0  0  0
    3.1215   -1.0127    0.0000 H   0  0  0  0  0  0  0  0  0  0  0  0
    6.5422    2.0124    0.0000 H   0  0  0  0  0  0  0  0  0  0  0  0
    6.9407    2.7027    0.0000 H   0  0  0  0  0  0  0  0  0  0  0  0
    2.3291   -2.0950    0.0000 H   0  0  0  0  0  0  0  0  0  0  0  0
    7.7331    3.7850    0.0000 H   0  0  0  0  0  0  0  0  0  0  0  0
    1.4631   -3.5950    0.0000 H   0  0  0  0  0  0  0  0  0  0  0  0
    4.2690   -3.5950    0.0000 H   0  0  0  0  0  0  0  0  0  0  0  0
    1.4631   -5.2150    0.0000 H   0  0  0  0  0  0  0  0  0  0  0  0
    4.2690   -5.2150    0.0000 H   0  0  0  0  0  0  0  0  0  0  0  0
    2.8660   -6.0250    0.0000 H   0  0  0  0  0  0  0  0  0  0  0  0
    7.7331    5.4050    0.0000 H   0  0  0  0  0  0  0  0  0  0  0  0
  1 12  2  0  0  0  0
  2 13  2  0  0  0  0
  3  5  1  0  0  0  0
  3 39  1  0  0  0  0
  4 12  1  0  0  0  0
  4 14  1  0  0  0  0
  4 32  1  0  0  0  0
  5 13  1  0  0  0  0
  5 33  1  0  0  0  0
  6  7  1  0  0  0  0
  6  8  1  0  0  0  0
  6 20  1  0  0  0  0
  6 21  1  0  0  0  0
  7  9  1  0  0  0  0
  7 22  1  0  0  0  0
  7 23  1  0  0  0  0
  8 10  1  0  0  0  0
  8 24  1  0  0  0  0
  8 25  1  0  0  0  0
  9 11  1  0  0  0  0
  9 26  1  0  0  0  0
  9 27  1  0  0  0  0
 10 12  1  0  0  0  0
 10 28  1  0  0  0  0
 10 29  1  0  0  0  0
 11 13  1  0  0  0  0
 11 30  1  0  0  0  0
 11 31  1  0  0  0  0
 14 15  2  0  0  0  0
 14 16  1  0  0  0  0
 15 17  1  0  0  0  0
 15 34  1  0  0  0  0
 16 18  2  0  0  0  0
 16 35  1  0  0  0  0
 17 19  2  0  0  0  0
 17 36  1  0  0  0  0
 18 19  1  0  0  0  0
 18 37  1  0  0  0  0
 19 38  1  0  0  0  0
M  END
> <PUBCHEM_COMPOUND_CID>
5311

> <PUBCHEM_COMPOUND_CANONICALIZED>
1

> <PUBCHEM_MOLECULAR_WEIGHT>
264.3202

> <PUBCHEM_MONOISOTOPIC_WEIGHT>
264.147393

> <PUBCHEM_EXACT_MASS>
264.147393

> <PUBCHEM_MOLECULAR_FORMULA>
C14H20N2O3

> <PUBCHEM_IUPAC_INCHI>
InChI=1S/C14H20N2O3/c17-13(15-12-8-4-3-5-9-12)10-6-1-2-7-11-14(18)16-19/h3-5,8-9,19H,1-2,6-7,10-11H2,(H,15,17)(H,16,18)

> <PUBCHEM_IUPAC_INCHIKEY>
WAEXFXRVDQXREF-UHFFFAOYSA-N

> <PUBCHEM_XLOGP3>
1.9

> <PUBCHEM_OPENEYE_CAN_SMILES>
C1=CC=C(C=C1)NC(=O)CCCCCCC(=O)NO

> <PUBCHEM_OPENEYE_ISO_SMILES>
C1=CC=C(C=C1)NC(=O)CCCCCCC(=O)NO

> <PUBCHEM_IUPAC_NAME>
N'-hydroxy-N-phenyloctanediamide

> <PUBCHEM_IUPAC_OPENEYE_NAME>
8-(hydroxyamino)-8-oxo-N-phenyl-octanamide

> <PUBCHEM_IUPAC_CAS_NAME>
N'-hydroxy-N-phenyloctanediamide

> <PUBCHEM_IUPAC_TRADITIONAL_NAME>
8-(hydroxyamino)-8-keto-N-phenyl-caprylamide

> <PUBCHEM_IUPAC_SYSTEMATIC_NAME>
N'-oxidanyl-N-phenyl-octanediamide

> <PUBCHEM_CACTVS_HBOND_DONOR>
3

> <PUBCHEM_CACTVS_HBOND_ACCEPTOR>
3

> <PUBCHEM_CACTVS_ROTATABLE_BOND>
8

> <PUBCHEM_CACTVS_COMPLEXITY>
276

> <PUBCHEM_CACTVS_TPSA>
78.4

> <PUBCHEM_CACTVS_SUBSKEYS>
AAADceBzMAAAAAAAAAAAAAAAAAAAAAAAAAAwAAAAAAAAAAABAAAAHgAUCAAACAiBkAAwwILQAACIACVSUACCAAAhAgAoiAEAZIgIIDLAkZGEIAhglADIyAcYiICAAAAAAAAAAAAAAAAAAAAAAAAAAAAAAA==

> <PUBCHEM_TOTAL_CHARGE>
0

> <PUBCHEM_HEAVY_ATOM_COUNT>
19

> <PUBCHEM_ATOM_DEF_STEREO_COUNT>
0

> <PUBCHEM_ATOM_UDEF_STEREO_COUNT>
0

> <PUBCHEM_BOND_DEF_STEREO_COUNT>
0

> <PUBCHEM_BOND_UDEF_STEREO_COUNT>
0

> <PUBCHEM_ISOTOPIC_ATOM_COUNT>
0

> <PUBCHEM_COMPONENT_COUNT>
1

> <PUBCHEM_CACTVS_TAUTO_COUNT>
12

> <PUBCHEM_COORDINATE_TYPE>
1
3

> <PUBCHEM_BONDANNOTATIONS>
14  15  8
14  16  8
15  17  8
16  18  8
17  19  8
18  19  8

$$$$
9444
  -OEChem-11121519512D

 29 30  0     1  0  0  0  0  0999 V2000
    5.0298   -1.2857    0.0000 O   0  0  0  0  0  0  0  0  0  0  0  0
    2.4608   -0.9766    0.0000 O   0  0  0  0  0  0  0  0  0  0  0  0
    3.1330   -3.0457    0.0000 O   0  0  0  0  0  0  0  0  0  0  0  0
    6.3031   -2.9412    0.0000 O   0  0  0  0  0  0  0  0  0  0  0  0
    2.4888    0.3021    0.0000 O   0  0  0  0  0  0  0  0  0  0  0  0
    4.2208    0.3021    0.0000 N   0  0  0  0  0  0  0  0  0  0  0  0
    3.3548    1.8021    0.0000 N   0  0  0  0  0  0  0  0  0  0  0  0
    5.0868    1.8021    0.0000 N   0  0  0  0  0  0  0  0  0  0  0  0
    4.2208    3.3021    0.0000 N   0  0  0  0  0  0  0  0  0  0  0  0
    3.4118   -1.2857    0.0000 C   0  0  2  0  0  0  0  0  0  0  0  0
    3.7208   -2.2367    0.0000 C   0  0  1  0  0  0  0  0  0  0  0  0
    4.7208   -2.2367    0.0000 C   0  0  1  0  0  0  0  0  0  0  0  0
    4.2208   -0.6979    0.0000 C   0  0  1  0  0  0  0  0  0  0  0  0
    5.3086   -3.0457    0.0000 C   0  0  0  0  0  0  0  0  0  0  0  0
    3.3548    0.8021    0.0000 C   0  0  0  0  0  0  0  0  0  0  0  0
    5.0868    0.8021    0.0000 C   0  0  0  0  0  0  0  0  0  0  0  0
    4.2208    2.3021    0.0000 C   0  0  0  0  0  0  0  0  0  0  0  0
    2.9734   -1.7241    0.0000 H   0  0  0  0  0  0  0  0  0  0  0  0
    3.1085   -2.1397    0.0000 H   0  0  0  0  0  0  0  0  0  0  0  0
    3.6684   -0.4164    0.0000 H   0  0  0  0  0  0  0  0  0  0  0  0
    5.3332   -2.1397    0.0000 H   0  0  0  0  0  0  0  0  0  0  0  0
    4.7514   -3.3175    0.0000 H   0  0  0  0  0  0  0  0  0  0  0  0
    5.4795   -3.6417    0.0000 H   0  0  0  0  0  0  0  0  0  0  0  0
    2.0000   -1.3915    0.0000 H   0  0  0  0  0  0  0  0  0  0  0  0
    3.3852   -3.6121    0.0000 H   0  0  0  0  0  0  0  0  0  0  0  0
    5.6238    0.4921    0.0000 H   0  0  0  0  0  0  0  0  0  0  0  0
    6.6676   -3.4428    0.0000 H   0  0  0  0  0  0  0  0  0  0  0  0
    4.7578    3.6121    0.0000 H   0  0  0  0  0  0  0  0  0  0  0  0
    3.6839    3.6121    0.0000 H   0  0  0  0  0  0  0  0  0  0  0  0
  1 12  1  0  0  0  0
  1 13  1  0  0  0  0
 10  2  1  1  0  0  0
  2 24  1  0  0  0  0
 11  3  1  1  0  0  0
  3 25  1  0  0  0  0
  4 14  1  0  0  0  0
  4 27  1  0  0  0  0
  5 15  2  0  0  0  0
 13  6  1  6  0  0  0
  6 15  1  0  0  0  0
  6 16  1  0  0  0  0
  7 15  1  0  0  0  0
  7 17  2  0  0  0  0
  8 16  2  0  0  0  0
  8 17  1  0  0  0  0
  9 17  1  0  0  0  0
  9 28  1  0  0  0  0
  9 29  1  0  0  0  0
 10 11  1  0  0  0  0
 10 13  1  0  0  0  0
 10 18  1  0  0  0  0
 11 12  1  0  0  0  0
 11 19  1  0  0  0  0
 12 14  1  6  0  0  0
 12 21  1  0  0  0  0
 13 20  1  0  0  0  0
 14 22  1  0  0  0  0
 14 23  1  0  0  0  0
 16 26  1  0  0  0  0
M  END
> <PUBCHEM_COMPOUND_CID>
9444

> <PUBCHEM_COMPOUND_CANONICALIZED>
1

> <PUBCHEM_CACTVS_COMPLEXITY>
384

> <PUBCHEM_CACTVS_HBOND_ACCEPTOR>
5

> <PUBCHEM_CACTVS_HBOND_DONOR>
4

> <PUBCHEM_CACTVS_ROTATABLE_BOND>
2

> <PUBCHEM_CACTVS_SUBSKEYS>
AAADccBzuAAAAAAAAAAAAAAAAAAAASAAAAAgAAAAAAAAAAAAAAAAHgAQCAAACBThgAYBAANABgAoAAABNAAAAAEAAAABAAAIAACDEAIAiAAOQAAHBgITAADwMAIAAAAAAAAAAAAAAAAAAAAAAAAAAAAAAA==

> <PUBCHEM_IUPAC_OPENEYE_NAME>
4-amino-1-[(2R,3R,4S,5R)-3,4-dihydroxy-5-(hydroxymethyl)tetrahydrofuran-2-yl]-1,3,5-triazin-2-one

> <PUBCHEM_IUPAC_CAS_NAME>
4-amino-1-[(2R,3R,4S,5R)-3,4-dihydroxy-5-(hydroxymethyl)-2-oxolanyl]-1,3,5-triazin-2-one

> <PUBCHEM_IUPAC_NAME>
4-amino-1-[(2R,3R,4S,5R)-3,4-dihydroxy-5-(hydroxymethyl)oxolan-2-yl]-1,3,5-triazin-2-one

> <PUBCHEM_IUPAC_SYSTEMATIC_NAME>
4-azanyl-1-[(2R,3R,4S,5R)-5-(hydroxymethyl)-3,4-bis(oxidanyl)oxolan-2-yl]-1,3,5-triazin-2-one

> <PUBCHEM_IUPAC_TRADITIONAL_NAME>
4-amino-1-[(2R,3R,4S,5R)-3,4-dihydroxy-5-methylol-tetrahydrofuran-2-yl]-s-triazin-2-one

> <PUBCHEM_IUPAC_INCHI>
InChI=1S/C8H12N4O5/c9-7-10-2-12(8(16)11-7)6-5(15)4(14)3(1-13)17-6/h2-6,13-15H,1H2,(H2,9,11,16)/t3-,4-,5-,6-/m1/s1

> <PUBCHEM_IUPAC_INCHIKEY>
NMUSYJAQQFHJEW-KVTDHHQDSA-N

> <PUBCHEM_XLOGP3>
-2.2

> <PUBCHEM_EXACT_MASS>
244.08077

> <PUBCHEM_MOLECULAR_FORMULA>
C8H12N4O5

> <PUBCHEM_MOLECULAR_WEIGHT>
244.20468

> <PUBCHEM_OPENEYE_CAN_SMILES>
C1=NC(=NC(=O)N1C2C(C(C(O2)CO)O)O)N

> <PUBCHEM_OPENEYE_ISO_SMILES>
C1=NC(=NC(=O)N1[C@H]2[C@@H]([C@@H]([C@H](O2)CO)O)O)N

> <PUBCHEM_CACTVS_TPSA>
141

> <PUBCHEM_MONOISOTOPIC_WEIGHT>
244.08077

> <PUBCHEM_TOTAL_CHARGE>
0

> <PUBCHEM_HEAVY_ATOM_COUNT>
17

> <PUBCHEM_ATOM_DEF_STEREO_COUNT>
4

> <PUBCHEM_ATOM_UDEF_STEREO_COUNT>
0

> <PUBCHEM_BOND_DEF_STEREO_COUNT>
0

> <PUBCHEM_BOND_UDEF_STEREO_COUNT>
0

> <PUBCHEM_ISOTOPIC_ATOM_COUNT>
0

> <PUBCHEM_COMPONENT_COUNT>
1

> <PUBCHEM_CACTVS_TAUTO_COUNT>
3

> <PUBCHEM_COORDINATE_TYPE>
1
5
255

> <PUBCHEM_BONDANNOTATIONS>
12  14  6
10  2  5
11  3  5
13  6  6
6  15  8
6  16  8
7  15  8
7  17  8
8  16  8
8  17  8

$$$$
43806
  -OEChem-11121519512D

 22 22  0     1  0  0  0  0  0999 V2000
    2.5369    0.3450    0.0000 N   0  0  0  0  0  0  0  0  0  0  0  0
    4.2690    1.3450    0.0000 N   0  0  0  0  0  0  0  0  0  0  0  0
    3.4030   -0.1550    0.0000 C   0  0  1  0  0  0  0  0  0  0  0  0
    4.2690    0.3450    0.0000 C   0  0  1  0  0  0  0  0  0  0  0  0
    3.4030   -1.1550    0.0000 C   0  0  0  0  0  0  0  0  0  0  0  0
    5.1350   -0.1550    0.0000 C   0  0  0  0  0  0  0  0  0  0  0  0
    4.2690   -1.6550    0.0000 C   0  0  0  0  0  0  0  0  0  0  0  0
    5.1350   -1.1550    0.0000 C   0  0  0  0  0  0  0  0  0  0  0  0
    3.4030    0.4650    0.0000 H   0  0  0  0  0  0  0  0  0  0  0  0
    4.8059    0.6550    0.0000 H   0  0  0  0  0  0  0  0  0  0  0  0
    2.7924   -1.0473    0.0000 H   0  0  0  0  0  0  0  0  0  0  0  0
    3.1909   -1.7376    0.0000 H   0  0  0  0  0  0  0  0  0  0  0  0
    5.7456   -0.2627    0.0000 H   0  0  0  0  0  0  0  0  0  0  0  0
    5.3471    0.4276    0.0000 H   0  0  0  0  0  0  0  0  0  0  0  0
    3.8705   -2.1300    0.0000 H   0  0  0  0  0  0  0  0  0  0  0  0
    4.6675   -2.1300    0.0000 H   0  0  0  0  0  0  0  0  0  0  0  0
    5.3471   -1.7376    0.0000 H   0  0  0  0  0  0  0  0  0  0  0  0
    5.7456   -1.0473    0.0000 H   0  0  0  0  0  0  0  0  0  0  0  0
    2.0000    0.0350    0.0000 H   0  0  0  0  0  0  0  0  0  0  0  0
    2.5369    0.9650    0.0000 H   0  0  0  0  0  0  0  0  0  0  0  0
    4.8059    1.6550    0.0000 H   0  0  0  0  0  0  0  0  0  0  0  0
    3.7320    1.6550    0.0000 H   0  0  0  0  0  0  0  0  0  0  0  0
  3  1  1  1  0  0  0
  1 19  1  0  0  0  0
  1 20  1  0  0  0  0
  4  2  1  6  0  0  0
  2 21  1  0  0  0  0
  2 22  1  0  0  0  0
  3  4  1  0  0  0  0
  3  5  1  0  0  0  0
  3  9  1  0  0  0  0
  4  6  1  0  0  0  0
  4 10  1  0  0  0  0
  5  7  1  0  0  0  0
  5 11  1  0  0  0  0
  5 12  1  0  0  0  0
  6  8  1  0  0  0  0
  6 13  1  0  0  0  0
  6 14  1  0  0  0  0
  7  8  1  0  0  0  0
  7 15  1  0  0  0  0
  7 16  1  0  0  0  0
  8 17  1  0  0  0  0
  8 18  1  0  0  0  0
M  END
> <PUBCHEM_COMPOUND_CID>
43806

> <PUBCHEM_COMPOUND_CANONICALIZED>
1

> <PUBCHEM_CACTVS_COMPLEXITY>
62.9

> <PUBCHEM_CACTVS_HBOND_ACCEPTOR>
2

> <PUBCHEM_CACTVS_HBOND_DONOR>
2

> <PUBCHEM_CACTVS_ROTATABLE_BOND>
0

> <PUBCHEM_CACTVS_SUBSKEYS>
AAADccBjAAAAAAAAAAAAAAAAAAAAAAAAAAAwAAAAAAAAAAAAAAAAHAAQAAAACCjBAAQAAABAAAAAAAAAAAAAAAAAAAAAAIAAAAAAQAIAgAAAAAAAEAAAAAEQAAAAAAAAAAAAAAAAAAAAAAAAQAAAAAAAAA==

> <PUBCHEM_IUPAC_OPENEYE_NAME>
(1R,2R)-cyclohexane-1,2-diamine

> <PUBCHEM_IUPAC_CAS_NAME>
(1R,2R)-cyclohexane-1,2-diamine

> <PUBCHEM_IUPAC_NAME>
(1R,2R)-cyclohexane-1,2-diamine

> <PUBCHEM_IUPAC_SYSTEMATIC_NAME>
(1R,2R)-cyclohexane-1,2-diamine

> <PUBCHEM_IUPAC_TRADITIONAL_NAME>
[(1R,2R)-2-aminocyclohexyl]amine

> <PUBCHEM_IUPAC_INCHI>
InChI=1S/C6H14N2/c7-5-3-1-2-4-6(5)8/h5-6H,1-4,7-8H2/t5-,6-/m1/s1

> <PUBCHEM_IUPAC_INCHIKEY>
SSJXIUAHEKJCMH-PHDIDXHHSA-N

> <PUBCHEM_XLOGP3_AA>
-0.3

> <PUBCHEM_EXACT_MASS>
114.115698

> <PUBCHEM_MOLECULAR_FORMULA>
C6H14N2

> <PUBCHEM_MOLECULAR_WEIGHT>
114.18876

> <PUBCHEM_OPENEYE_CAN_SMILES>
C1CCC(C(C1)N)N

> <PUBCHEM_OPENEYE_ISO_SMILES>
C1CC[C@H]([C@@H](C1)N)N

> <PUBCHEM_CACTVS_TPSA>
52

> <PUBCHEM_MONOISOTOPIC_WEIGHT>
114.115698

> <PUBCHEM_TOTAL_CHARGE>
0

> <PUBCHEM_HEAVY_ATOM_COUNT>
8

> <PUBCHEM_ATOM_DEF_STEREO_COUNT>
2

> <PUBCHEM_ATOM_UDEF_STEREO_COUNT>
0

> <PUBCHEM_BOND_DEF_STEREO_COUNT>
0

> <PUBCHEM_BOND_UDEF_STEREO_COUNT>
0

> <PUBCHEM_ISOTOPIC_ATOM_COUNT>
0

> <PUBCHEM_COMPONENT_COUNT>
1

> <PUBCHEM_CACTVS_TAUTO_COUNT>
1

> <PUBCHEM_COORDINATE_TYPE>
1
5
255

> <PUBCHEM_BONDANNOTATIONS>
3  1  5
4  2  6

$$$$
60700
  -OEChem-11121519512D

 54 58  0     1  0  0  0  0  0999 V2000
    6.7792    4.8485    0.0000 O   0  0  0  0  0  0  0  0  0  0  0  0
    8.6732    3.2745    0.0000 O   0  0  0  0  0  0  0  0  0  0  0  0
    4.1652    3.2792    0.0000 O   0  0  0  0  0  0  0  0  0  0  0  0
    8.5492    4.8243    0.0000 O   0  0  0  0  0  0  0  0  0  0  0  0
    4.6250   -4.3452    0.0000 O   0  0  0  0  0  0  0  0  0  0  0  0
    5.0312    1.7792    0.0000 N   0  0  0  0  0  0  0  0  0  0  0  0
    6.3088   -0.5214    0.0000 N   0  0  0  0  0  0  0  0  0  0  0  0
    2.9957   -3.5562    0.0000 N   0  0  0  0  0  0  0  0  0  0  0  0
    7.6733    3.2861    0.0000 C   0  0  2  0  0  0  0  0  0  0  0  0
    6.7633    2.7792    0.0000 C   0  0  0  0  0  0  0  0  0  0  0  0
    5.8972    1.2792    0.0000 C   0  0  0  0  0  0  0  0  0  0  0  0
    4.2942    1.1121    0.0000 C   0  0  0  0  0  0  0  0  0  0  0  0
    5.8972    3.2792    0.0000 C   0  0  0  0  0  0  0  0  0  0  0  0
    4.6993    0.2043    0.0000 C   0  0  0  0  0  0  0  0  0  0  0  0
    5.6880    0.3074    0.0000 C   0  0  0  0  0  0  0  0  0  0  0  0
    6.7633    1.7792    0.0000 C   0  0  0  0  0  0  0  0  0  0  0  0
    5.0312    2.7792    0.0000 C   0  0  0  0  0  0  0  0  0  0  0  0
    8.1632    2.4143    0.0000 C   0  0  0  0  0  0  0  0  0  0  0  0
    5.8812    4.3207    0.0000 C   0  0  0  0  0  0  0  0  0  0  0  0
    7.6813    4.3277    0.0000 C   0  0  0  0  0  0  0  0  0  0  0  0
    4.2628   -0.7346    0.0000 C   0  0  0  0  0  0  0  0  0  0  0  0
    4.8642   -1.5775    0.0000 C   0  0  0  0  0  0  0  0  0  0  0  0
    5.8941   -1.4702    0.0000 C   0  0  0  0  0  0  0  0  0  0  0  0
    4.4096   -2.5556    0.0000 C   0  0  0  0  0  0  0  0  0  0  0  0
    7.6532    1.5541    0.0000 C   0  0  0  0  0  0  0  0  0  0  0  0
    3.4138   -2.6477    0.0000 C   0  0  0  0  0  0  0  0  0  0  0  0
    6.5407   -2.3334    0.0000 C   0  0  0  0  0  0  0  0  0  0  0  0
    5.0360   -3.4336    0.0000 C   0  0  0  0  0  0  0  0  0  0  0  0
    6.1088   -3.3217    0.0000 C   0  0  0  0  0  0  0  0  0  0  0  0
    2.0000   -3.6483    0.0000 C   0  0  0  0  0  0  0  0  0  0  0  0
    3.5734   -4.3724    0.0000 C   0  0  0  0  0  0  0  0  0  0  0  0
    3.9288    1.6130    0.0000 H   0  0  0  0  0  0  0  0  0  0  0  0
    3.7577    0.8014    0.0000 H   0  0  0  0  0  0  0  0  0  0  0  0
    7.3002    1.4692    0.0000 H   0  0  0  0  0  0  0  0  0  0  0  0
    8.6335    2.0103    0.0000 H   0  0  0  0  0  0  0  0  0  0  0  0
    8.6427    2.8073    0.0000 H   0  0  0  0  0  0  0  0  0  0  0  0
    5.6632    4.9011    0.0000 H   0  0  0  0  0  0  0  0  0  0  0  0
    5.2720    4.2052    0.0000 H   0  0  0  0  0  0  0  0  0  0  0  0
    3.6454   -0.7918    0.0000 H   0  0  0  0  0  0  0  0  0  0  0  0
    7.1199    1.8703    0.0000 H   0  0  0  0  0  0  0  0  0  0  0  0
    7.3370    1.0208    0.0000 H   0  0  0  0  0  0  0  0  0  0  0  0
    8.1866    1.2379    0.0000 H   0  0  0  0  0  0  0  0  0  0  0  0
    8.9770    2.7340    0.0000 H   0  0  0  0  0  0  0  0  0  0  0  0
    3.4647   -2.0298    0.0000 H   0  0  0  0  0  0  0  0  0  0  0  0
    2.8141   -2.4903    0.0000 H   0  0  0  0  0  0  0  0  0  0  0  0
    7.1566   -2.2620    0.0000 H   0  0  0  0  0  0  0  0  0  0  0  0
    6.4747   -3.8222    0.0000 H   0  0  0  0  0  0  0  0  0  0  0  0
    1.9429   -3.0309    0.0000 H   0  0  0  0  0  0  0  0  0  0  0  0
    1.3826   -3.7054    0.0000 H   0  0  0  0  0  0  0  0  0  0  0  0
    2.0571   -4.2657    0.0000 H   0  0  0  0  0  0  0  0  0  0  0  0
    3.0673   -4.7306    0.0000 H   0  0  0  0  0  0  0  0  0  0  0  0
    3.9316   -4.8785    0.0000 H   0  0  0  0  0  0  0  0  0  0  0  0
    4.0795   -4.0142    0.0000 H   0  0  0  0  0  0  0  0  0  0  0  0
    4.9870   -4.8485    0.0000 H   0  0  0  0  0  0  0  0  0  0  0  0
  1 19  1  0  0  0  0
  1 20  1  0  0  0  0
  9  2  1  1  0  0  0
  2 43  1  0  0  0  0
  3 17  2  0  0  0  0
  4 20  2  0  0  0  0
  5 28  1  0  0  0  0
  5 54  1  0  0  0  0
  6 11  1  0  0  0  0
  6 12  1  0  0  0  0
  6 17  1  0  0  0  0
  7 15  1  0  0  0  0
  7 23  2  0  0  0  0
  8 26  1  0  0  0  0
  8 30  1  0  0  0  0
  8 31  1  0  0  0  0
  9 10  1  0  0  0  0
  9 18  1  0  0  0  0
  9 20  1  0  0  0  0
 10 13  2  0  0  0  0
 10 16  1  0  0  0  0
 11 15  1  0  0  0  0
 11 16  2  0  0  0  0
 12 14  1  0  0  0  0
 12 32  1  0  0  0  0
 12 33  1  0  0  0  0
 13 17  1  0  0  0  0
 13 19  1  0  0  0  0
 14 15  2  0  0  0  0
 14 21  1  0  0  0  0
 16 34  1  0  0  0  0
 18 25  1  0  0  0  0
 18 35  1  0  0  0  0
 18 36  1  0  0  0  0
 19 37  1  0  0  0  0
 19 38  1  0  0  0  0
 21 22  2  0  0  0  0
 21 39  1  0  0  0  0
 22 23  1  0  0  0  0
 22 24  1  0  0  0  0
 23 27  1  0  0  0  0
 24 26  1  0  0  0  0
 24 28  2  0  0  0  0
 25 40  1  0  0  0  0
 25 41  1  0  0  0  0
 25 42  1  0  0  0  0
 26 44  1  0  0  0  0
 26 45  1  0  0  0  0
 27 29  2  0  0  0  0
 27 46  1  0  0  0  0
 28 29  1  0  0  0  0
 29 47  1  0  0  0  0
 30 48  1  0  0  0  0
 30 49  1  0  0  0  0
 30 50  1  0  0  0  0
 31 51  1  0  0  0  0
 31 52  1  0  0  0  0
 31 53  1  0  0  0  0
M  END
> <PUBCHEM_COMPOUND_CID>
60700

> <PUBCHEM_COMPOUND_CANONICALIZED>
1

> <PUBCHEM_CACTVS_COMPLEXITY>
867

> <PUBCHEM_CACTVS_HBOND_ACCEPTOR>
7

> <PUBCHEM_CACTVS_HBOND_DONOR>
2

> <PUBCHEM_CACTVS_ROTATABLE_BOND>
3

> <PUBCHEM_CACTVS_SUBSKEYS>
AAADceB7OAAAAAAAAAAAAAAAAAAAAWAAAAA8QIEAAAAAAFix8AAAHgAACAAADEzhngYyzvMIFgCoAyXyXAKCgCAhIiAImCF+bNgJZvbC8ZOWcAhm5hHL+QewwPAOgEABQAAaAAAAgAKAADQAAAAAAAAAAA==

> <PUBCHEM_IUPAC_INCHI>
InChI=1S/C23H23N3O5/c1-4-23(30)16-8-18-20-12(9-26(18)21(28)15(16)11-31-22(23)29)7-13-14(10-25(2)3)19(27)6-5-17(13)24-20/h5-8,27,30H,4,9-11H2,1-3H3/t23-/m0/s1

> <PUBCHEM_IUPAC_INCHIKEY>
UCFGDBYHRUNTLO-QHCPKHFHSA-N

> <PUBCHEM_XLOGP3_AA>
0.5

> <PUBCHEM_EXACT_MASS>
421.163771

> <PUBCHEM_MOLECULAR_FORMULA>
C23H23N3O5

> <PUBCHEM_MOLECULAR_WEIGHT>
421.44582

> <PUBCHEM_OPENEYE_CAN_SMILES>
CCC1(C2=C(COC1=O)C(=O)N3CC4=C(C3=C2)N=C5C=CC(=C(C5=C4)CN(C)C)O)O

> <PUBCHEM_OPENEYE_ISO_SMILES>
CC[C@@]1(C2=C(COC1=O)C(=O)N3CC4=C(C3=C2)N=C5C=CC(=C(C5=C4)CN(C)C)O)O

> <PUBCHEM_CACTVS_TPSA>
103

> <PUBCHEM_MONOISOTOPIC_WEIGHT>
421.163771

> <PUBCHEM_TOTAL_CHARGE>
0

> <PUBCHEM_HEAVY_ATOM_COUNT>
31

> <PUBCHEM_ATOM_DEF_STEREO_COUNT>
1

> <PUBCHEM_ATOM_UDEF_STEREO_COUNT>
0

> <PUBCHEM_BOND_DEF_STEREO_COUNT>
0

> <PUBCHEM_BOND_UDEF_STEREO_COUNT>
0

> <PUBCHEM_ISOTOPIC_ATOM_COUNT>
0

> <PUBCHEM_COMPONENT_COUNT>
1

> <PUBCHEM_CACTVS_TAUTO_COUNT>
7

> <PUBCHEM_COORDINATE_TYPE>
1
5
255

> <PUBCHEM_BONDANNOTATIONS>
10  13  8
10  16  8
11  16  8
13  17  8
14  15  8
14  21  8
9  2  5
21  22  8
22  23  8
22  24  8
23  27  8
24  28  8
27  29  8
28  29  8
6  11  8
6  17  8
7  15  8
7  23  8

$$$$
104741
  -OEChem-11121519512D

 88 91  0     1  0  0  0  0  0999 V2000
   11.4954   -3.1972    0.0000 S   0  0  3  0  0  0  0  0  0  0  0  0
   14.2620   -6.1654    0.0000 F   0  0  0  0  0  0  0  0  0  0  0  0
   12.2621   -6.1885    0.0000 F   0  0  0  0  0  0  0  0  0  0  0  0
   13.2852   -8.1768    0.0000 F   0  0  0  0  0  0  0  0  0  0  0  0
   14.2735   -7.1653    0.0000 F   0  0  0  0  0  0  0  0  0  0  0  0
   12.2737   -7.1885    0.0000 F   0  0  0  0  0  0  0  0  0  0  0  0
    9.1857    8.0490    0.0000 O   0  0  0  0  0  0  0  0  0  0  0  0
    2.5357    3.7414    0.0000 O   0  0  0  0  0  0  0  0  0  0  0  0
   10.6352   -3.7072    0.0000 O   0  0  0  0  0  0  0  0  0  0  0  0
    7.9288    5.7937    0.0000 C   0  0  2  0  0  0  0  0  0  0  0  0
    7.9288    6.7937    0.0000 C   0  0  2  0  0  0  0  0  0  0  0  0
    7.0628    5.2937    0.0000 C   0  0  1  0  0  0  0  0  0  0  0  0
    6.1968    5.7937    0.0000 C   0  0  2  0  0  0  0  0  0  0  0  0
    7.0628    7.2937    0.0000 C   0  0  0  0  0  0  0  0  0  0  0  0
    8.8750    7.0985    0.0000 C   0  0  2  0  0  0  0  0  0  0  0  0
    8.8750    5.4890    0.0000 C   0  0  0  0  0  0  0  0  0  0  0  0
    7.0789    4.2522    0.0000 C   0  0  1  0  0  0  0  0  0  0  0  0
    6.1968    6.7937    0.0000 C   0  0  0  0  0  0  0  0  0  0  0  0
    9.4586    6.2937    0.0000 C   0  0  0  0  0  0  0  0  0  0  0  0
    7.9288    7.7937    0.0000 C   0  0  0  0  0  0  0  0  0  0  0  0
    5.2868    5.2869    0.0000 C   0  0  0  0  0  0  0  0  0  0  0  0
    6.1808    3.7245    0.0000 C   0  0  0  0  0  0  0  0  0  0  0  0
    7.9506    3.7623    0.0000 C   0  0  0  0  0  0  0  0  0  0  0  0
    5.2787    4.2453    0.0000 C   0  0  0  0  0  0  0  0  0  0  0  0
    7.9622    2.7623    0.0000 C   0  0  0  0  0  0  0  0  0  0  0  0
    4.3599    5.8510    0.0000 C   0  0  0  0  0  0  0  0  0  0  0  0
    4.3433    3.6956    0.0000 C   0  0  0  0  0  0  0  0  0  0  0  0
    8.8339    2.2724    0.0000 C   0  0  0  0  0  0  0  0  0  0  0  0
    3.4120    5.3230    0.0000 C   0  0  0  0  0  0  0  0  0  0  0  0
    3.4037    4.2381    0.0000 C   0  0  0  0  0  0  0  0  0  0  0  0
    8.8455    1.2724    0.0000 C   0  0  0  0  0  0  0  0  0  0  0  0
    9.7172    0.7825    0.0000 C   0  0  0  0  0  0  0  0  0  0  0  0
    9.7288   -0.2174    0.0000 C   0  0  0  0  0  0  0  0  0  0  0  0
   10.6005   -0.7074    0.0000 C   0  0  0  0  0  0  0  0  0  0  0  0
   10.6121   -1.7073    0.0000 C   0  0  0  0  0  0  0  0  0  0  0  0
   11.4839   -2.1973    0.0000 C   0  0  0  0  0  0  0  0  0  0  0  0
   12.3672   -3.6872    0.0000 C   0  0  0  0  0  0  0  0  0  0  0  0
   12.3787   -4.6871    0.0000 C   0  0  0  0  0  0  0  0  0  0  0  0
   13.2505   -5.1770    0.0000 C   0  0  0  0  0  0  0  0  0  0  0  0
   13.2620   -6.1770    0.0000 C   0  0  0  0  0  0  0  0  0  0  0  0
   13.2736   -7.1769    0.0000 C   0  0  0  0  0  0  0  0  0  0  0  0
    8.0188    4.9485    0.0000 H   0  0  0  0  0  0  0  0  0  0  0  0
    7.8022    4.8744    0.0000 H   0  0  0  0  0  0  0  0  0  0  0  0
    6.9329    6.2187    0.0000 H   0  0  0  0  0  0  0  0  0  0  0  0
    7.4613    7.7687    0.0000 H   0  0  0  0  0  0  0  0  0  0  0  0
    6.6643    7.7687    0.0000 H   0  0  0  0  0  0  0  0  0  0  0  0
    9.4875    7.1947    0.0000 H   0  0  0  0  0  0  0  0  0  0  0  0
    8.6240    4.9221    0.0000 H   0  0  0  0  0  0  0  0  0  0  0  0
    9.4124    5.1798    0.0000 H   0  0  0  0  0  0  0  0  0  0  0  0
    7.0848    3.6322    0.0000 H   0  0  0  0  0  0  0  0  0  0  0  0
    5.9847    7.3763    0.0000 H   0  0  0  0  0  0  0  0  0  0  0  0
    5.5862    6.6861    0.0000 H   0  0  0  0  0  0  0  0  0  0  0  0
    9.9195    5.8790    0.0000 H   0  0  0  0  0  0  0  0  0  0  0  0
    9.9195    6.7085    0.0000 H   0  0  0  0  0  0  0  0  0  0  0  0
    8.5488    7.7937    0.0000 H   0  0  0  0  0  0  0  0  0  0  0  0
    7.9288    8.4137    0.0000 H   0  0  0  0  0  0  0  0  0  0  0  0
    7.3088    7.7937    0.0000 H   0  0  0  0  0  0  0  0  0  0  0  0
    5.7835    3.2485    0.0000 H   0  0  0  0  0  0  0  0  0  0  0  0
    6.5818    3.2516    0.0000 H   0  0  0  0  0  0  0  0  0  0  0  0
    8.5624    3.6617    0.0000 H   0  0  0  0  0  0  0  0  0  0  0  0
    8.1559    4.3473    0.0000 H   0  0  0  0  0  0  0  0  0  0  0  0
    9.7924    8.1768    0.0000 H   0  0  0  0  0  0  0  0  0  0  0  0
    7.3504    2.8629    0.0000 H   0  0  0  0  0  0  0  0  0  0  0  0
    7.7569    2.1773    0.0000 H   0  0  0  0  0  0  0  0  0  0  0  0
    4.3719    6.4709    0.0000 H   0  0  0  0  0  0  0  0  0  0  0  0
    4.3457    3.0756    0.0000 H   0  0  0  0  0  0  0  0  0  0  0  0
    9.4457    2.1718    0.0000 H   0  0  0  0  0  0  0  0  0  0  0  0
    9.0392    2.8574    0.0000 H   0  0  0  0  0  0  0  0  0  0  0  0
    2.8787    5.6392    0.0000 H   0  0  0  0  0  0  0  0  0  0  0  0
    8.2337    1.3731    0.0000 H   0  0  0  0  0  0  0  0  0  0  0  0
    8.6402    0.6874    0.0000 H   0  0  0  0  0  0  0  0  0  0  0  0
   10.3290    0.6819    0.0000 H   0  0  0  0  0  0  0  0  0  0  0  0
    9.9225    1.3675    0.0000 H   0  0  0  0  0  0  0  0  0  0  0  0
    2.0000    4.0535    0.0000 H   0  0  0  0  0  0  0  0  0  0  0  0
    9.1170   -0.1168    0.0000 H   0  0  0  0  0  0  0  0  0  0  0  0
    9.5235   -0.8025    0.0000 H   0  0  0  0  0  0  0  0  0  0  0  0
   11.2123   -0.8080    0.0000 H   0  0  0  0  0  0  0  0  0  0  0  0
   10.8058   -0.1224    0.0000 H   0  0  0  0  0  0  0  0  0  0  0  0
   10.0003   -1.6067    0.0000 H   0  0  0  0  0  0  0  0  0  0  0  0
   10.4068   -2.2923    0.0000 H   0  0  0  0  0  0  0  0  0  0  0  0
   12.0956   -2.2979    0.0000 H   0  0  0  0  0  0  0  0  0  0  0  0
   11.6892   -1.6122    0.0000 H   0  0  0  0  0  0  0  0  0  0  0  0
   12.9790   -3.7878    0.0000 H   0  0  0  0  0  0  0  0  0  0  0  0
   12.5725   -3.1021    0.0000 H   0  0  0  0  0  0  0  0  0  0  0  0
   11.7669   -4.5865    0.0000 H   0  0  0  0  0  0  0  0  0  0  0  0
   12.1734   -5.2721    0.0000 H   0  0  0  0  0  0  0  0  0  0  0  0
   13.8623   -5.2776    0.0000 H   0  0  0  0  0  0  0  0  0  0  0  0
   13.4558   -4.5920    0.0000 H   0  0  0  0  0  0  0  0  0  0  0  0
  1  9  2  0  0  0  0
  1 36  1  0  0  0  0
  1 37  1  0  0  0  0
  2 40  1  0  0  0  0
  3 40  1  0  0  0  0
  4 41  1  0  0  0  0
  5 41  1  0  0  0  0
  6 41  1  0  0  0  0
 15  7  1  1  0  0  0
  7 62  1  0  0  0  0
  8 30  1  0  0  0  0
  8 74  1  0  0  0  0
 10 11  1  0  0  0  0
 10 12  1  0  0  0  0
 10 16  1  0  0  0  0
 10 42  1  6  0  0  0
 11 14  1  0  0  0  0
 11 15  1  0  0  0  0
 11 20  1  1  0  0  0
 12 13  1  0  0  0  0
 12 17  1  0  0  0  0
 12 43  1  1  0  0  0
 13 18  1  0  0  0  0
 13 21  1  0  0  0  0
 13 44  1  6  0  0  0
 14 18  1  0  0  0  0
 14 45  1  0  0  0  0
 14 46  1  0  0  0  0
 15 19  1  0  0  0  0
 15 47  1  0  0  0  0
 16 19  1  0  0  0  0
 16 48  1  0  0  0  0
 16 49  1  0  0  0  0
 17 22  1  0  0  0  0
 17 23  1  6  0  0  0
 17 50  1  0  0  0  0
 18 51  1  0  0  0  0
 18 52  1  0  0  0  0
 19 53  1  0  0  0  0
 19 54  1  0  0  0  0
 20 55  1  0  0  0  0
 20 56  1  0  0  0  0
 20 57  1  0  0  0  0
 21 24  2  0  0  0  0
 21 26  1  0  0  0  0
 22 24  1  0  0  0  0
 22 58  1  0  0  0  0
 22 59  1  0  0  0  0
 23 25  1  0  0  0  0
 23 60  1  0  0  0  0
 23 61  1  0  0  0  0
 24 27  1  0  0  0  0
 25 28  1  0  0  0  0
 25 63  1  0  0  0  0
 25 64  1  0  0  0  0
 26 29  2  0  0  0  0
 26 65  1  0  0  0  0
 27 30  2  0  0  0  0
 27 66  1  0  0  0  0
 28 31  1  0  0  0  0
 28 67  1  0  0  0  0
 28 68  1  0  0  0  0
 29 30  1  0  0  0  0
 29 69  1  0  0  0  0
 31 32  1  0  0  0  0
 31 70  1  0  0  0  0
 31 71  1  0  0  0  0
 32 33  1  0  0  0  0
 32 72  1  0  0  0  0
 32 73  1  0  0  0  0
 33 34  1  0  0  0  0
 33 75  1  0  0  0  0
 33 76  1  0  0  0  0
 34 35  1  0  0  0  0
 34 77  1  0  0  0  0
 34 78  1  0  0  0  0
 35 36  1  0  0  0  0
 35 79  1  0  0  0  0
 35 80  1  0  0  0  0
 36 81  1  0  0  0  0
 36 82  1  0  0  0  0
 37 38  1  0  0  0  0
 37 83  1  0  0  0  0
 37 84  1  0  0  0  0
 38 39  1  0  0  0  0
 38 85  1  0  0  0  0
 38 86  1  0  0  0  0
 39 40  1  0  0  0  0
 39 87  1  0  0  0  0
 39 88  1  0  0  0  0
 40 41  1  0  0  0  0
M  END
> <PUBCHEM_COMPOUND_CID>
104741

> <PUBCHEM_COMPOUND_CANONICALIZED>
1

> <PUBCHEM_CACTVS_COMPLEXITY>
854

> <PUBCHEM_CACTVS_HBOND_ACCEPTOR>
9

> <PUBCHEM_CACTVS_HBOND_DONOR>
2

> <PUBCHEM_CACTVS_ROTATABLE_BOND>
14

> <PUBCHEM_CACTVS_SUBSKEYS>
AAADcfB8McBAAAAAAAAAAAAAAAAAAYAAAAAwYMAAAAAAAGDBAAAAGwQACAAADxSk2BKyBoAAAgqAAiBCAEBCAAAgIBAIiAAGCIgINiKiERKAcAAkwBEomAeAwPAPoAABAAAQAADAAAYAACAAAIAADAAAAA==

> <PUBCHEM_IUPAC_OPENEYE_NAME>
(7R,8R,9S,13S,14S,17S)-13-methyl-7-[9-(4,4,5,5,5-pentafluoropentylsulfinyl)nonyl]-6,7,8,9,11,12,14,15,16,17-decahydrocyclopenta[a]phenanthrene-3,17-diol

> <PUBCHEM_IUPAC_CAS_NAME>
(7R,8R,9S,13S,14S,17S)-13-methyl-7-[9-(4,4,5,5,5-pentafluoropentylsulfinyl)nonyl]-6,7,8,9,11,12,14,15,16,17-decahydrocyclopenta[a]phenanthrene-3,17-diol

> <PUBCHEM_IUPAC_NAME>
(7R,8R,9S,13S,14S,17S)-13-methyl-7-[9-(4,4,5,5,5-pentafluoropentylsulfinyl)nonyl]-6,7,8,9,11,12,14,15,16,17-decahydrocyclopenta[a]phenanthrene-3,17-diol

> <PUBCHEM_IUPAC_SYSTEMATIC_NAME>
(7R,8R,9S,13S,14S,17S)-13-methyl-7-[9-[4,4,5,5,5-pentakis(fluoranyl)pentylsulfinyl]nonyl]-6,7,8,9,11,12,14,15,16,17-decahydrocyclopenta[a]phenanthrene-3,17-diol

> <PUBCHEM_IUPAC_TRADITIONAL_NAME>
(7R,8R,9S,13S,14S,17S)-13-methyl-7-[9-(4,4,5,5,5-pentafluoropentylsulfinyl)nonyl]-6,7,8,9,11,12,14,15,16,17-decahydrocyclopenta[a]phenanthrene-3,17-diol

> <PUBCHEM_IUPAC_INCHI>
InChI=1S/C32H47F5O3S/c1-30-17-15-26-25-12-11-24(38)21-23(25)20-22(29(26)27(30)13-14-28(30)39)10-7-5-3-2-4-6-8-18-41(40)19-9-16-31(33,34)32(35,36)37/h11-12,21-22,26-29,38-39H,2-10,13-20H2,1H3/t22-,26-,27+,28+,29-,30+,41?/m1/s1

> <PUBCHEM_IUPAC_INCHIKEY>
VWUXBMIQPBEWFH-WCCTWKNTSA-N

> <PUBCHEM_XLOGP3>
9.2

> <PUBCHEM_EXACT_MASS>
606.316607

> <PUBCHEM_MOLECULAR_FORMULA>
C32H47F5O3S

> <PUBCHEM_MOLECULAR_WEIGHT>
606.770796

> <PUBCHEM_OPENEYE_CAN_SMILES>
CC12CCC3C(C1CCC2O)C(CC4=C3C=CC(=C4)O)CCCCCCCCCS(=O)CCCC(C(F)(F)F)(F)F

> <PUBCHEM_OPENEYE_ISO_SMILES>
C[C@]12CC[C@H]3[C@H]([C@@H]1CC[C@@H]2O)[C@@H](CC4=C3C=CC(=C4)O)CCCCCCCCCS(=O)CCCC(C(F)(F)F)(F)F

> <PUBCHEM_CACTVS_TPSA>
76.7

> <PUBCHEM_MONOISOTOPIC_WEIGHT>
606.316607

> <PUBCHEM_TOTAL_CHARGE>
0

> <PUBCHEM_HEAVY_ATOM_COUNT>
41

> <PUBCHEM_ATOM_DEF_STEREO_COUNT>
6

> <PUBCHEM_ATOM_UDEF_STEREO_COUNT>
1

> <PUBCHEM_BOND_DEF_STEREO_COUNT>
0

> <PUBCHEM_BOND_UDEF_STEREO_COUNT>
0

> <PUBCHEM_ISOTOPIC_ATOM_COUNT>
0

> <PUBCHEM_COMPONENT_COUNT>
1

> <PUBCHEM_CACTVS_TAUTO_COUNT>
9

> <PUBCHEM_COORDINATE_TYPE>
1
5
255

> <PUBCHEM_BONDANNOTATIONS>
1  36  3
10  42  6
11  20  5
12  43  5
13  44  6
17  23  6
21  24  8
21  26  8
24  27  8
26  29  8
27  30  8
29  30  8
15  7  5

$$$$
104842
  -OEChem-11121519512D

 49 53  0     1  0  0  0  0  0999 V2000
    5.9302    4.8485    0.0000 O   0  0  0  0  0  0  0  0  0  0  0  0
    7.8242    3.2745    0.0000 O   0  0  0  0  0  0  0  0  0  0  0  0
    3.3162    3.2792    0.0000 O   0  0  0  0  0  0  0  0  0  0  0  0
    7.7002    4.8243    0.0000 O   0  0  0  0  0  0  0  0  0  0  0  0
    3.7760   -4.3452    0.0000 O   0  0  0  0  0  0  0  0  0  0  0  0
    4.1822    1.7792    0.0000 N   0  0  0  0  0  0  0  0  0  0  0  0
    5.4598   -0.5214    0.0000 N   0  0  0  0  0  0  0  0  0  0  0  0
    5.0482    1.2792    0.0000 C   0  0  0  0  0  0  0  0  0  0  0  0
    5.9143    2.7792    0.0000 C   0  0  0  0  0  0  0  0  0  0  0  0
    6.8243    3.2861    0.0000 C   0  0  2  0  0  0  0  0  0  0  0  0
    3.4452    1.1121    0.0000 C   0  0  0  0  0  0  0  0  0  0  0  0
    3.8503    0.2043    0.0000 C   0  0  0  0  0  0  0  0  0  0  0  0
    4.8390    0.3074    0.0000 C   0  0  0  0  0  0  0  0  0  0  0  0
    5.0482    3.2792    0.0000 C   0  0  0  0  0  0  0  0  0  0  0  0
    5.9143    1.7792    0.0000 C   0  0  0  0  0  0  0  0  0  0  0  0
    4.1822    2.7792    0.0000 C   0  0  0  0  0  0  0  0  0  0  0  0
    3.4138   -0.7346    0.0000 C   0  0  0  0  0  0  0  0  0  0  0  0
    7.3142    2.4143    0.0000 C   0  0  0  0  0  0  0  0  0  0  0  0
    5.0322    4.3207    0.0000 C   0  0  0  0  0  0  0  0  0  0  0  0
    6.8323    4.3277    0.0000 C   0  0  0  0  0  0  0  0  0  0  0  0
    4.0152   -1.5775    0.0000 C   0  0  0  0  0  0  0  0  0  0  0  0
    2.4181   -0.8268    0.0000 C   0  0  0  0  0  0  0  0  0  0  0  0
    5.0451   -1.4702    0.0000 C   0  0  0  0  0  0  0  0  0  0  0  0
    6.8042    1.5541    0.0000 C   0  0  0  0  0  0  0  0  0  0  0  0
    3.5606   -2.5556    0.0000 C   0  0  0  0  0  0  0  0  0  0  0  0
    2.0000   -1.7352    0.0000 C   0  0  0  0  0  0  0  0  0  0  0  0
    5.6917   -2.3334    0.0000 C   0  0  0  0  0  0  0  0  0  0  0  0
    4.1870   -3.4336    0.0000 C   0  0  0  0  0  0  0  0  0  0  0  0
    5.2598   -3.3217    0.0000 C   0  0  0  0  0  0  0  0  0  0  0  0
    3.0798    1.6130    0.0000 H   0  0  0  0  0  0  0  0  0  0  0  0
    2.9087    0.8014    0.0000 H   0  0  0  0  0  0  0  0  0  0  0  0
    6.4512    1.4692    0.0000 H   0  0  0  0  0  0  0  0  0  0  0  0
    7.7845    2.0103    0.0000 H   0  0  0  0  0  0  0  0  0  0  0  0
    7.7937    2.8073    0.0000 H   0  0  0  0  0  0  0  0  0  0  0  0
    4.8142    4.9011    0.0000 H   0  0  0  0  0  0  0  0  0  0  0  0
    4.4230    4.2052    0.0000 H   0  0  0  0  0  0  0  0  0  0  0  0
    2.4690   -0.2089    0.0000 H   0  0  0  0  0  0  0  0  0  0  0  0
    1.8184   -0.6693    0.0000 H   0  0  0  0  0  0  0  0  0  0  0  0
    6.2709    1.8703    0.0000 H   0  0  0  0  0  0  0  0  0  0  0  0
    6.4880    1.0208    0.0000 H   0  0  0  0  0  0  0  0  0  0  0  0
    7.3376    1.2379    0.0000 H   0  0  0  0  0  0  0  0  0  0  0  0
    8.1280    2.7340    0.0000 H   0  0  0  0  0  0  0  0  0  0  0  0
    2.9432   -2.6127    0.0000 H   0  0  0  0  0  0  0  0  0  0  0  0
    1.4368   -1.4760    0.0000 H   0  0  0  0  0  0  0  0  0  0  0  0
    1.7408   -2.2984    0.0000 H   0  0  0  0  0  0  0  0  0  0  0  0
    2.5632   -1.9944    0.0000 H   0  0  0  0  0  0  0  0  0  0  0  0
    6.3076   -2.2620    0.0000 H   0  0  0  0  0  0  0  0  0  0  0  0
    5.6257   -3.8222    0.0000 H   0  0  0  0  0  0  0  0  0  0  0  0
    4.1380   -4.8485    0.0000 H   0  0  0  0  0  0  0  0  0  0  0  0
  1 19  1  0  0  0  0
  1 20  1  0  0  0  0
 10  2  1  1  0  0  0
  2 42  1  0  0  0  0
  3 16  2  0  0  0  0
  4 20  2  0  0  0  0
  5 28  1  0  0  0  0
  5 49  1  0  0  0  0
  6  8  1  0  0  0  0
  6 11  1  0  0  0  0
  6 16  1  0  0  0  0
  7 13  1  0  0  0  0
  7 23  2  0  0  0  0
  8 13  1  0  0  0  0
  8 15  2  0  0  0  0
  9 10  1  0  0  0  0
  9 14  2  0  0  0  0
  9 15  1  0  0  0  0
 10 18  1  0  0  0  0
 10 20  1  0  0  0  0
 11 12  1  0  0  0  0
 11 30  1  0  0  0  0
 11 31  1  0  0  0  0
 12 13  2  0  0  0  0
 12 17  1  0  0  0  0
 14 16  1  0  0  0  0
 14 19  1  0  0  0  0
 15 32  1  0  0  0  0
 17 21  2  0  0  0  0
 17 22  1  0  0  0  0
 18 24  1  0  0  0  0
 18 33  1  0  0  0  0
 18 34  1  0  0  0  0
 19 35  1  0  0  0  0
 19 36  1  0  0  0  0
 21 23  1  0  0  0  0
 21 25  1  0  0  0  0
 22 26  1  0  0  0  0
 22 37  1  0  0  0  0
 22 38  1  0  0  0  0
 23 27  1  0  0  0  0
 24 39  1  0  0  0  0
 24 40  1  0  0  0  0
 24 41  1  0  0  0  0
 25 28  2  0  0  0  0
 25 43  1  0  0  0  0
 26 44  1  0  0  0  0
 26 45  1  0  0  0  0
 26 46  1  0  0  0  0
 27 29  2  0  0  0  0
 27 47  1  0  0  0  0
 28 29  1  0  0  0  0
 29 48  1  0  0  0  0
M  END
> <PUBCHEM_COMPOUND_CID>
104842

> <PUBCHEM_COMPOUND_CANONICALIZED>
1

> <PUBCHEM_CACTVS_COMPLEXITY>
820

> <PUBCHEM_CACTVS_HBOND_ACCEPTOR>
6

> <PUBCHEM_CACTVS_HBOND_DONOR>
2

> <PUBCHEM_CACTVS_ROTATABLE_BOND>
2

> <PUBCHEM_CACTVS_SUBSKEYS>
AAADceB7OAAAAAAAAAAAAAAAAAAAAWAAAAA8QIEAAAAAAFix8AAAHgAACAAADEzhngYyzvMIFgCoAyXyXAKCgCAhIiAImCF+bNgJZvbC8ZOWcAhm5hHL+QewwPAOgEABAAACAAAAgAIAAAQAAAAAAAAAAA==

> <PUBCHEM_IUPAC_INCHI>
InChI=1S/C22H20N2O5/c1-3-12-13-7-11(25)5-6-17(13)23-19-14(12)9-24-18(19)8-16-15(20(24)26)10-29-21(27)22(16,28)4-2/h5-8,25,28H,3-4,9-10H2,1-2H3/t22-/m0/s1

> <PUBCHEM_IUPAC_INCHIKEY>
FJHBVJOVLFPMQE-QFIPXVFZSA-N

> <PUBCHEM_XLOGP3_AA>
1.4

> <PUBCHEM_EXACT_MASS>
392.137222

> <PUBCHEM_MOLECULAR_FORMULA>
C22H20N2O5

> <PUBCHEM_MOLECULAR_WEIGHT>
392.4046

> <PUBCHEM_OPENEYE_CAN_SMILES>
CCC1=C2C=C(C=CC2=NC3=C1CN4C3=CC5=C(C4=O)COC(=O)C5(CC)O)O

> <PUBCHEM_OPENEYE_ISO_SMILES>
CCC1=C2C=C(C=CC2=NC3=C1CN4C3=CC5=C(C4=O)COC(=O)[C@@]5(CC)O)O

> <PUBCHEM_CACTVS_TPSA>
100

> <PUBCHEM_MONOISOTOPIC_WEIGHT>
392.137222

> <PUBCHEM_TOTAL_CHARGE>
0

> <PUBCHEM_HEAVY_ATOM_COUNT>
29

> <PUBCHEM_ATOM_DEF_STEREO_COUNT>
1

> <PUBCHEM_ATOM_UDEF_STEREO_COUNT>
0

> <PUBCHEM_BOND_DEF_STEREO_COUNT>
0

> <PUBCHEM_BOND_UDEF_STEREO_COUNT>
0

> <PUBCHEM_ISOTOPIC_ATOM_COUNT>
0

> <PUBCHEM_COMPONENT_COUNT>
1

> <PUBCHEM_CACTVS_TAUTO_COUNT>
3

> <PUBCHEM_COORDINATE_TYPE>
1
5
255

> <PUBCHEM_BONDANNOTATIONS>
12  13  8
12  17  8
14  16  8
17  21  8
10  2  5
21  23  8
21  25  8
23  27  8
25  28  8
27  29  8
28  29  8
6  16  8
6  8  8
7  13  8
7  23  8
8  15  8
9  14  8
9  15  8

$$$$
123631
  -OEChem-11121519512D

 55 58  0     0  0  0  0  0  0999 V2000
   12.3739   -3.5272    0.0000 Cl  0  0  0  0  0  0  0  0  0  0  0  0
   14.1174   -2.5473    0.0000 F   0  0  0  0  0  0  0  0  0  0  0  0
    2.0000   -0.4728    0.0000 O   0  0  0  0  0  0  0  0  0  0  0  0
    7.1962    0.5272    0.0000 O   0  0  0  0  0  0  0  0  0  0  0  0
    7.1962    2.5272    0.0000 O   0  0  0  0  0  0  0  0  0  0  0  0
    3.7320    0.5272    0.0000 N   0  0  0  0  0  0  0  0  0  0  0  0
   10.6766   -0.5074    0.0000 N   0  0  0  0  0  0  0  0  0  0  0  0
   10.6882    2.5619    0.0000 N   0  0  0  0  0  0  0  0  0  0  0  0
   11.5942    1.0064    0.0000 N   0  0  0  0  0  0  0  0  0  0  0  0
    4.5981    1.0272    0.0000 C   0  0  0  0  0  0  0  0  0  0  0  0
    3.7320   -0.4728    0.0000 C   0  0  0  0  0  0  0  0  0  0  0  0
    2.8660    1.0272    0.0000 C   0  0  0  0  0  0  0  0  0  0  0  0
    5.4641    0.5272    0.0000 C   0  0  0  0  0  0  0  0  0  0  0  0
    2.0000    0.5272    0.0000 C   0  0  0  0  0  0  0  0  0  0  0  0
    2.8660   -0.9728    0.0000 C   0  0  0  0  0  0  0  0  0  0  0  0
    6.3301    1.0272    0.0000 C   0  0  0  0  0  0  0  0  0  0  0  0
    8.0622    1.0272    0.0000 C   0  0  0  0  0  0  0  0  0  0  0  0
    9.7942    1.0272    0.0000 C   0  0  0  0  0  0  0  0  0  0  0  0
    8.9282    0.5272    0.0000 C   0  0  0  0  0  0  0  0  0  0  0  0
    8.0622    2.0272    0.0000 C   0  0  0  0  0  0  0  0  0  0  0  0
    9.7942    2.0272    0.0000 C   0  0  0  0  0  0  0  0  0  0  0  0
    8.9282    2.5272    0.0000 C   0  0  0  0  0  0  0  0  0  0  0  0
   10.6882    0.4926    0.0000 C   0  0  0  0  0  0  0  0  0  0  0  0
   11.5368   -1.0174    0.0000 C   0  0  0  0  0  0  0  0  0  0  0  0
   11.5942    2.0480    0.0000 C   0  0  0  0  0  0  0  0  0  0  0  0
    7.1962    3.5272    0.0000 C   0  0  0  0  0  0  0  0  0  0  0  0
   11.5252   -2.0173    0.0000 C   0  0  0  0  0  0  0  0  0  0  0  0
   12.4085   -0.5274    0.0000 C   0  0  0  0  0  0  0  0  0  0  0  0
   12.3854   -2.5273    0.0000 C   0  0  0  0  0  0  0  0  0  0  0  0
   13.2687   -1.0374    0.0000 C   0  0  0  0  0  0  0  0  0  0  0  0
   13.2572   -2.0373    0.0000 C   0  0  0  0  0  0  0  0  0  0  0  0
    4.9966    1.5022    0.0000 H   0  0  0  0  0  0  0  0  0  0  0  0
    4.1996    1.5022    0.0000 H   0  0  0  0  0  0  0  0  0  0  0  0
    3.9441   -1.0554    0.0000 H   0  0  0  0  0  0  0  0  0  0  0  0
    4.3426   -0.3651    0.0000 H   0  0  0  0  0  0  0  0  0  0  0  0
    3.2646    1.5022    0.0000 H   0  0  0  0  0  0  0  0  0  0  0  0
    2.4675    1.5022    0.0000 H   0  0  0  0  0  0  0  0  0  0  0  0
    5.0656    0.0523    0.0000 H   0  0  0  0  0  0  0  0  0  0  0  0
    5.8626    0.0523    0.0000 H   0  0  0  0  0  0  0  0  0  0  0  0
    2.4675   -1.4477    0.0000 H   0  0  0  0  0  0  0  0  0  0  0  0
    3.2646   -1.4477    0.0000 H   0  0  0  0  0  0  0  0  0  0  0  0
    1.7880    1.1098    0.0000 H   0  0  0  0  0  0  0  0  0  0  0  0
    1.3894    0.4195    0.0000 H   0  0  0  0  0  0  0  0  0  0  0  0
    6.7287    1.5022    0.0000 H   0  0  0  0  0  0  0  0  0  0  0  0
    5.9316    1.5022    0.0000 H   0  0  0  0  0  0  0  0  0  0  0  0
    8.9282   -0.0928    0.0000 H   0  0  0  0  0  0  0  0  0  0  0  0
    8.9282    3.1472    0.0000 H   0  0  0  0  0  0  0  0  0  0  0  0
   10.1361   -0.8112    0.0000 H   0  0  0  0  0  0  0  0  0  0  0  0
   12.1300    2.3601    0.0000 H   0  0  0  0  0  0  0  0  0  0  0  0
   10.9847   -2.3211    0.0000 H   0  0  0  0  0  0  0  0  0  0  0  0
   12.4157    0.0925    0.0000 H   0  0  0  0  0  0  0  0  0  0  0  0
    7.8162    3.5272    0.0000 H   0  0  0  0  0  0  0  0  0  0  0  0
    7.1962    4.1472    0.0000 H   0  0  0  0  0  0  0  0  0  0  0  0
    6.5762    3.5272    0.0000 H   0  0  0  0  0  0  0  0  0  0  0  0
   13.8092   -0.7336    0.0000 H   0  0  0  0  0  0  0  0  0  0  0  0
  1 29  1  0  0  0  0
  2 31  1  0  0  0  0
  3 14  1  0  0  0  0
  3 15  1  0  0  0  0
  4 16  1  0  0  0  0
  4 17  1  0  0  0  0
  5 20  1  0  0  0  0
  5 26  1  0  0  0  0
  6 10  1  0  0  0  0
  6 11  1  0  0  0  0
  6 12  1  0  0  0  0
  7 23  1  0  0  0  0
  7 24  1  0  0  0  0
  7 48  1  0  0  0  0
  8 21  1  0  0  0  0
  8 25  2  0  0  0  0
  9 23  2  0  0  0  0
  9 25  1  0  0  0  0
 10 13  1  0  0  0  0
 10 32  1  0  0  0  0
 10 33  1  0  0  0  0
 11 15  1  0  0  0  0
 11 34  1  0  0  0  0
 11 35  1  0  0  0  0
 12 14  1  0  0  0  0
 12 36  1  0  0  0  0
 12 37  1  0  0  0  0
 13 16  1  0  0  0  0
 13 38  1  0  0  0  0
 13 39  1  0  0  0  0
 14 42  1  0  0  0  0
 14 43  1  0  0  0  0
 15 40  1  0  0  0  0
 15 41  1  0  0  0  0
 16 44  1  0  0  0  0
 16 45  1  0  0  0  0
 17 19  1  0  0  0  0
 17 20  2  0  0  0  0
 18 19  2  0  0  0  0
 18 21  1  0  0  0  0
 18 23  1  0  0  0  0
 19 46  1  0  0  0  0
 20 22  1  0  0  0  0
 21 22  2  0  0  0  0
 22 47  1  0  0  0  0
 24 27  2  0  0  0  0
 24 28  1  0  0  0  0
 25 49  1  0  0  0  0
 26 52  1  0  0  0  0
 26 53  1  0  0  0  0
 26 54  1  0  0  0  0
 27 29  1  0  0  0  0
 27 50  1  0  0  0  0
 28 30  2  0  0  0  0
 28 51  1  0  0  0  0
 29 31  2  0  0  0  0
 30 31  1  0  0  0  0
 30 55  1  0  0  0  0
M  END
> <PUBCHEM_COMPOUND_CID>
123631

> <PUBCHEM_COMPOUND_CANONICALIZED>
1

> <PUBCHEM_CACTVS_COMPLEXITY>
545

> <PUBCHEM_CACTVS_HBOND_ACCEPTOR>
8

> <PUBCHEM_CACTVS_HBOND_DONOR>
1

> <PUBCHEM_CACTVS_ROTATABLE_BOND>
8

> <PUBCHEM_CACTVS_SUBSKEYS>
AAADceB7sQAEAAAAAAAAAAAAAAAAAAAAAAA8eIEAAAAAAACx9AAAHwIQAAAADA7hni439vfIFACgAyZjZACCiCkxJ6AJ2CA+7piPLuLF+9uHPCru0Bva6Cew0BMOIEABAgICQABAgAIEBASAAAAAAAAAAA==

> <PUBCHEM_IUPAC_OPENEYE_NAME>
N-(3-chloro-4-fluoro-phenyl)-7-methoxy-6-(3-morpholinopropoxy)quinazolin-4-amine

> <PUBCHEM_IUPAC_CAS_NAME>
N-(3-chloro-4-fluorophenyl)-7-methoxy-6-[3-(4-morpholinyl)propoxy]-4-quinazolinamine

> <PUBCHEM_IUPAC_NAME>
N-(3-chloro-4-fluorophenyl)-7-methoxy-6-(3-morpholin-4-ylpropoxy)quinazolin-4-amine

> <PUBCHEM_IUPAC_SYSTEMATIC_NAME>
N-(3-chloranyl-4-fluoranyl-phenyl)-7-methoxy-6-(3-morpholin-4-ylpropoxy)quinazolin-4-amine

> <PUBCHEM_IUPAC_TRADITIONAL_NAME>
(3-chloro-4-fluoro-phenyl)-[7-methoxy-6-(3-morpholinopropoxy)quinazolin-4-yl]amine

> <PUBCHEM_IUPAC_INCHI>
InChI=1S/C22H24ClFN4O3/c1-29-20-13-19-16(12-21(20)31-8-2-5-28-6-9-30-10-7-28)22(26-14-25-19)27-15-3-4-18(24)17(23)11-15/h3-4,11-14H,2,5-10H2,1H3,(H,25,26,27)

> <PUBCHEM_IUPAC_INCHIKEY>
XGALLCVXEZPNRQ-UHFFFAOYSA-N

> <PUBCHEM_XLOGP3_AA>
4.1

> <PUBCHEM_EXACT_MASS>
446.152097

> <PUBCHEM_MOLECULAR_FORMULA>
C22H24ClFN4O3

> <PUBCHEM_MOLECULAR_WEIGHT>
446.902363

> <PUBCHEM_OPENEYE_CAN_SMILES>
COC1=C(C=C2C(=C1)N=CN=C2NC3=CC(=C(C=C3)F)Cl)OCCCN4CCOCC4

> <PUBCHEM_OPENEYE_ISO_SMILES>
COC1=C(C=C2C(=C1)N=CN=C2NC3=CC(=C(C=C3)F)Cl)OCCCN4CCOCC4

> <PUBCHEM_CACTVS_TPSA>
68.7

> <PUBCHEM_MONOISOTOPIC_WEIGHT>
446.152097

> <PUBCHEM_TOTAL_CHARGE>
0

> <PUBCHEM_HEAVY_ATOM_COUNT>
31

> <PUBCHEM_ATOM_DEF_STEREO_COUNT>
0

> <PUBCHEM_ATOM_UDEF_STEREO_COUNT>
0

> <PUBCHEM_BOND_DEF_STEREO_COUNT>
0

> <PUBCHEM_BOND_UDEF_STEREO_COUNT>
0

> <PUBCHEM_ISOTOPIC_ATOM_COUNT>
0

> <PUBCHEM_COMPONENT_COUNT>
1

> <PUBCHEM_CACTVS_TAUTO_COUNT>
3

> <PUBCHEM_COORDINATE_TYPE>
1
5
255

> <PUBCHEM_BONDANNOTATIONS>
17  19  8
17  20  8
18  19  8
18  21  8
18  23  8
20  22  8
21  22  8
24  27  8
24  28  8
27  29  8
28  30  8
29  31  8
30  31  8
8  21  8
8  25  8
9  23  8
9  25  8

$$$$
176167
  -OEChem-11121519512D

 68 74  0     0  0  0  0  0  0999 V2000
    3.4026    4.1084    0.0000 O   0  0  0  0  0  0  0  0  0  0  0  0
    6.7523    5.1903    0.0000 O   0  0  0  0  0  0  0  0  0  0  0  0
    4.6783    0.7366    0.0000 N   0  0  0  0  0  0  0  0  0  0  0  0
    5.6103   -2.1150    0.0000 N   0  0  0  0  0  0  0  0  0  0  0  0
    4.9917    4.9146    0.0000 N   0  0  0  0  0  0  0  0  0  0  0  0
    7.6900    1.7094    0.0000 N   0  0  0  0  0  0  0  0  0  0  0  0
    5.5637   -4.7603    0.0000 N   0  0  0  0  0  0  0  0  0  0  0  0
    4.9889   -0.2139    0.0000 C   0  0  0  0  0  0  0  0  0  0  0  0
    4.3211   -0.9582    0.0000 C   0  0  0  0  0  0  0  0  0  0  0  0
    5.9674   -0.4201    0.0000 C   0  0  0  0  0  0  0  0  0  0  0  0
    6.2781   -1.3707    0.0000 C   0  0  0  0  0  0  0  0  0  0  0  0
    4.6318   -1.9087    0.0000 C   0  0  0  0  0  0  0  0  0  0  0  0
    3.7320    1.0413    0.0000 C   0  0  0  0  0  0  0  0  0  0  0  0
    5.2619    1.5413    0.0000 C   0  0  0  0  0  0  0  0  0  0  0  0
    5.9209   -3.0655    0.0000 C   0  0  0  0  0  0  0  0  0  0  0  0
    4.6783    2.3461    0.0000 C   0  0  0  0  0  0  0  0  0  0  0  0
    3.7320    2.0413    0.0000 C   0  0  0  0  0  0  0  0  0  0  0  0
    4.9889    3.2966    0.0000 C   0  0  0  0  0  0  0  0  0  0  0  0
    2.8660    0.5413    0.0000 C   0  0  0  0  0  0  0  0  0  0  0  0
    2.8660    2.5413    0.0000 C   0  0  0  0  0  0  0  0  0  0  0  0
    5.2531   -3.8098    0.0000 C   0  0  0  0  0  0  0  0  0  0  0  0
    5.9405    3.6040    0.0000 C   0  0  0  0  0  0  0  0  0  0  0  0
    2.0000    1.0413    0.0000 C   0  0  0  0  0  0  0  0  0  0  0  0
    4.4026    4.1066    0.0000 C   0  0  0  0  0  0  0  0  0  0  0  0
    2.0000    2.0413    0.0000 C   0  0  0  0  0  0  0  0  0  0  0  0
    6.7485    3.0148    0.0000 C   0  0  0  0  0  0  0  0  0  0  0  0
    5.9422    4.6040    0.0000 C   0  0  0  0  0  0  0  0  0  0  0  0
    7.6942    3.3211    0.0000 C   0  0  0  0  0  0  0  0  0  0  0  0
    4.2746   -3.6036    0.0000 C   0  0  0  0  0  0  0  0  0  0  0  0
    6.7459    2.0207    0.0000 C   0  0  0  0  0  0  0  0  0  0  0  0
    8.2792    2.5101    0.0000 C   0  0  0  0  0  0  0  0  0  0  0  0
    8.1041    4.2333    0.0000 C   0  0  0  0  0  0  0  0  0  0  0  0
    3.6067   -4.3479    0.0000 C   0  0  0  0  0  0  0  0  0  0  0  0
    9.2741    2.6112    0.0000 C   0  0  0  0  0  0  0  0  0  0  0  0
    4.8959   -5.5046    0.0000 C   0  0  0  0  0  0  0  0  0  0  0  0
    7.9941    0.7568    0.0000 C   0  0  0  0  0  0  0  0  0  0  0  0
    3.9174   -5.2984    0.0000 C   0  0  0  0  0  0  0  0  0  0  0  0
    9.0990    4.3344    0.0000 C   0  0  0  0  0  0  0  0  0  0  0  0
    9.6840    3.5233    0.0000 C   0  0  0  0  0  0  0  0  0  0  0  0
    5.4030    0.2475    0.0000 H   0  0  0  0  0  0  0  0  0  0  0  0
    3.9385   -0.4703    0.0000 H   0  0  0  0  0  0  0  0  0  0  0  0
    6.5812   -0.3328    0.0000 H   0  0  0  0  0  0  0  0  0  0  0  0
    5.9880    0.1995    0.0000 H   0  0  0  0  0  0  0  0  0  0  0  0
    3.7742   -1.2502    0.0000 H   0  0  0  0  0  0  0  0  0  0  0  0
    6.6607   -1.8586    0.0000 H   0  0  0  0  0  0  0  0  0  0  0  0
    6.8250   -1.0786    0.0000 H   0  0  0  0  0  0  0  0  0  0  0  0
    4.0179   -1.9961    0.0000 H   0  0  0  0  0  0  0  0  0  0  0  0
    4.6112   -2.5284    0.0000 H   0  0  0  0  0  0  0  0  0  0  0  0
    5.8819    1.5413    0.0000 H   0  0  0  0  0  0  0  0  0  0  0  0
    6.3035   -3.5534    0.0000 H   0  0  0  0  0  0  0  0  0  0  0  0
    6.4678   -2.7735    0.0000 H   0  0  0  0  0  0  0  0  0  0  0  0
    2.8660   -0.0787    0.0000 H   0  0  0  0  0  0  0  0  0  0  0  0
    2.8660    3.1613    0.0000 H   0  0  0  0  0  0  0  0  0  0  0  0
    1.4631    0.7313    0.0000 H   0  0  0  0  0  0  0  0  0  0  0  0
    1.4631    2.3513    0.0000 H   0  0  0  0  0  0  0  0  0  0  0  0
    4.8012    5.5046    0.0000 H   0  0  0  0  0  0  0  0  0  0  0  0
    4.0820   -3.0142    0.0000 H   0  0  0  0  0  0  0  0  0  0  0  0
    6.2431    1.6580    0.0000 H   0  0  0  0  0  0  0  0  0  0  0  0
    7.7414    4.7361    0.0000 H   0  0  0  0  0  0  0  0  0  0  0  0
    3.0000   -4.2200    0.0000 H   0  0  0  0  0  0  0  0  0  0  0  0
    9.6368    2.1083    0.0000 H   0  0  0  0  0  0  0  0  0  0  0  0
    5.0885   -6.0939    0.0000 H   0  0  0  0  0  0  0  0  0  0  0  0
    7.4035    0.5682    0.0000 H   0  0  0  0  0  0  0  0  0  0  0  0
    8.1826    0.1661    0.0000 H   0  0  0  0  0  0  0  0  0  0  0  0
    8.5848    0.9453    0.0000 H   0  0  0  0  0  0  0  0  0  0  0  0
    3.5033   -5.7598    0.0000 H   0  0  0  0  0  0  0  0  0  0  0  0
    9.3531    4.8999    0.0000 H   0  0  0  0  0  0  0  0  0  0  0  0
   10.3008    3.5860    0.0000 H   0  0  0  0  0  0  0  0  0  0  0  0
  1 24  2  0  0  0  0
  2 27  2  0  0  0  0
  3  8  1  0  0  0  0
  3 13  1  0  0  0  0
  3 14  1  0  0  0  0
  4 11  1  0  0  0  0
  4 12  1  0  0  0  0
  4 15  1  0  0  0  0
  5 24  1  0  0  0  0
  5 27  1  0  0  0  0
  5 56  1  0  0  0  0
  6 30  1  0  0  0  0
  6 31  1  0  0  0  0
  6 36  1  0  0  0  0
  7 21  1  0  0  0  0
  7 35  2  0  0  0  0
  8  9  1  0  0  0  0
  8 10  1  0  0  0  0
  8 40  1  0  0  0  0
  9 12  1  0  0  0  0
  9 41  1  0  0  0  0
  9 44  1  0  0  0  0
 10 11  1  0  0  0  0
 10 42  1  0  0  0  0
 10 43  1  0  0  0  0
 11 45  1  0  0  0  0
 11 46  1  0  0  0  0
 12 47  1  0  0  0  0
 12 48  1  0  0  0  0
 13 17  1  0  0  0  0
 13 19  2  0  0  0  0
 14 16  2  0  0  0  0
 14 49  1  0  0  0  0
 15 21  1  0  0  0  0
 15 50  1  0  0  0  0
 15 51  1  0  0  0  0
 16 17  1  0  0  0  0
 16 18  1  0  0  0  0
 17 20  2  0  0  0  0
 18 22  2  0  0  0  0
 18 24  1  0  0  0  0
 19 23  1  0  0  0  0
 19 52  1  0  0  0  0
 20 25  1  0  0  0  0
 20 53  1  0  0  0  0
 21 29  2  0  0  0  0
 22 26  1  0  0  0  0
 22 27  1  0  0  0  0
 23 25  2  0  0  0  0
 23 54  1  0  0  0  0
 25 55  1  0  0  0  0
 26 28  1  0  0  0  0
 26 30  2  0  0  0  0
 28 31  1  0  0  0  0
 28 32  2  0  0  0  0
 29 33  1  0  0  0  0
 29 57  1  0  0  0  0
 30 58  1  0  0  0  0
 31 34  2  0  0  0  0
 32 38  1  0  0  0  0
 32 59  1  0  0  0  0
 33 37  2  0  0  0  0
 33 60  1  0  0  0  0
 34 39  1  0  0  0  0
 34 61  1  0  0  0  0
 35 37  1  0  0  0  0
 35 62  1  0  0  0  0
 36 63  1  0  0  0  0
 36 64  1  0  0  0  0
 36 65  1  0  0  0  0
 37 66  1  0  0  0  0
 38 39  2  0  0  0  0
 38 67  1  0  0  0  0
 39 68  1  0  0  0  0
M  END
> <PUBCHEM_COMPOUND_CID>
176167

> <PUBCHEM_COMPOUND_CANONICALIZED>
1

> <PUBCHEM_CACTVS_COMPLEXITY>
974

> <PUBCHEM_CACTVS_HBOND_ACCEPTOR>
4

> <PUBCHEM_CACTVS_HBOND_DONOR>
1

> <PUBCHEM_CACTVS_ROTATABLE_BOND>
5

> <PUBCHEM_CACTVS_SUBSKEYS>
AAADceB/sAAAAAAAAAAAAAAAAAAAAWLEAAA8eIEAAAAAAFgB/gAAHgAQAAAADCjBngQ+wPPMEACoAzV3VACCgCAxAiAI2CE4ZNgIYPLA1ZGUIAhghCDIyQccicCegAAAAAACAAAAAAAAAAQAAAAAAAAAAA==

> <PUBCHEM_IUPAC_OPENEYE_NAME>
3-(1-methylindol-3-yl)-4-[1-[1-(2-pyridylmethyl)-4-piperidyl]indol-3-yl]pyrrole-2,5-dione

> <PUBCHEM_IUPAC_CAS_NAME>
3-(1-methyl-3-indolyl)-4-[1-[1-(2-pyridinylmethyl)-4-piperidinyl]-3-indolyl]pyrrole-2,5-dione

> <PUBCHEM_IUPAC_NAME>
3-(1-methylindol-3-yl)-4-[1-[1-(pyridin-2-ylmethyl)piperidin-4-yl]indol-3-yl]pyrrole-2,5-dione

> <PUBCHEM_IUPAC_SYSTEMATIC_NAME>
3-(1-methylindol-3-yl)-4-[1-[1-(pyridin-2-ylmethyl)piperidin-4-yl]indol-3-yl]pyrrole-2,5-dione

> <PUBCHEM_IUPAC_TRADITIONAL_NAME>
3-(1-methylindol-3-yl)-4-[1-[1-(2-pyridylmethyl)-4-piperidyl]indol-3-yl]-3-pyrroline-2,5-quinone

> <PUBCHEM_IUPAC_INCHI>
InChI=1S/C32H29N5O2/c1-35-19-25(23-9-2-4-11-27(23)35)29-30(32(39)34-31(29)38)26-20-37(28-12-5-3-10-24(26)28)22-13-16-36(17-14-22)18-21-8-6-7-15-33-21/h2-12,15,19-20,22H,13-14,16-18H2,1H3,(H,34,38,39)

> <PUBCHEM_IUPAC_INCHIKEY>
AXRCEOKUDYDWLF-UHFFFAOYSA-N

> <PUBCHEM_XLOGP3_AA>
3.7

> <PUBCHEM_EXACT_MASS>
515.232125

> <PUBCHEM_MOLECULAR_FORMULA>
C32H29N5O2

> <PUBCHEM_MOLECULAR_WEIGHT>
515.60496

> <PUBCHEM_OPENEYE_CAN_SMILES>
CN1C=C(C2=CC=CC=C21)C3=C(C(=O)NC3=O)C4=CN(C5=CC=CC=C54)C6CCN(CC6)CC7=CC=CC=N7

> <PUBCHEM_OPENEYE_ISO_SMILES>
CN1C=C(C2=CC=CC=C21)C3=C(C(=O)NC3=O)C4=CN(C5=CC=CC=C54)C6CCN(CC6)CC7=CC=CC=N7

> <PUBCHEM_CACTVS_TPSA>
72.2

> <PUBCHEM_MONOISOTOPIC_WEIGHT>
515.232125

> <PUBCHEM_TOTAL_CHARGE>
0

> <PUBCHEM_HEAVY_ATOM_COUNT>
39

> <PUBCHEM_ATOM_DEF_STEREO_COUNT>
0

> <PUBCHEM_ATOM_UDEF_STEREO_COUNT>
0

> <PUBCHEM_BOND_DEF_STEREO_COUNT>
0

> <PUBCHEM_BOND_UDEF_STEREO_COUNT>
0

> <PUBCHEM_ISOTOPIC_ATOM_COUNT>
0

> <PUBCHEM_COMPONENT_COUNT>
1

> <PUBCHEM_CACTVS_TAUTO_COUNT>
9

> <PUBCHEM_COORDINATE_TYPE>
1
5
255

> <PUBCHEM_BONDANNOTATIONS>
13  17  8
13  19  8
14  16  8
16  17  8
17  20  8
19  23  8
20  25  8
21  29  8
23  25  8
26  28  8
26  30  8
28  31  8
28  32  8
29  33  8
3  13  8
3  14  8
31  34  8
32  38  8
33  37  8
34  39  8
35  37  8
38  39  8
6  30  8
6  31  8
7  21  8
7  35  8

$$$$
387447
  -OEChem-11121519512D

 53 54  0     1  0  0  0  0  0999 V2000
    4.5981   -0.5600    0.0000 O   0  0  0  0  0  0  0  0  0  0  0  0
    3.7320    2.9400    0.0000 O   0  0  0  0  0  0  0  0  0  0  0  0
    5.4641    2.9400    0.0000 O   0  0  0  0  0  0  0  0  0  0  0  0
    8.0622   -1.5600    0.0000 O   0  0  0  0  0  0  0  0  0  0  0  0
    5.4641    0.9400    0.0000 N   0  0  0  0  0  0  0  0  0  0  0  0
    7.1962   -0.0600    0.0000 N   0  0  0  0  0  0  0  0  0  0  0  0
    9.7942   -0.5600    0.0000 N   0  0  0  0  0  0  0  0  0  0  0  0
    9.7942    1.4400    0.0000 N   0  0  0  0  0  0  0  0  0  0  0  0
    3.7320    0.9400    0.0000 C   0  0  0  0  0  0  0  0  0  0  0  0
    2.8660    1.4400    0.0000 C   0  0  0  0  0  0  0  0  0  0  0  0
    4.5981    1.4400    0.0000 C   0  0  1  0  0  0  0  0  0  0  0  0
    6.3301   -0.5600    0.0000 C   0  0  2  0  0  0  0  0  0  0  0  0
    5.4641   -0.0600    0.0000 C   0  0  0  0  0  0  0  0  0  0  0  0
    6.3301   -1.5600    0.0000 C   0  0  0  0  0  0  0  0  0  0  0  0
    2.0000    0.9400    0.0000 C   0  0  0  0  0  0  0  0  0  0  0  0
    2.8660    2.4400    0.0000 C   0  0  0  0  0  0  0  0  0  0  0  0
    5.4641   -2.0600    0.0000 C   0  0  0  0  0  0  0  0  0  0  0  0
    4.5981   -1.5600    0.0000 C   0  0  0  0  0  0  0  0  0  0  0  0
    5.4641   -3.0600    0.0000 C   0  0  0  0  0  0  0  0  0  0  0  0
    8.0622   -0.5600    0.0000 C   0  0  0  0  0  0  0  0  0  0  0  0
    3.7320   -2.0600    0.0000 C   0  0  0  0  0  0  0  0  0  0  0  0
    4.5981   -3.5600    0.0000 C   0  0  0  0  0  0  0  0  0  0  0  0
    3.7320   -3.0600    0.0000 C   0  0  0  0  0  0  0  0  0  0  0  0
    8.9282   -0.0600    0.0000 C   0  0  0  0  0  0  0  0  0  0  0  0
    8.9282    0.9400    0.0000 C   0  0  0  0  0  0  0  0  0  0  0  0
   10.6603   -0.0600    0.0000 C   0  0  0  0  0  0  0  0  0  0  0  0
   10.6603    0.9400    0.0000 C   0  0  0  0  0  0  0  0  0  0  0  0
    4.5981    2.4400    0.0000 B   0  0  0  0  0  0  0  0  0  0  0  0
    3.3335    0.4651    0.0000 H   0  0  0  0  0  0  0  0  0  0  0  0
    4.1306    0.4651    0.0000 H   0  0  0  0  0  0  0  0  0  0  0  0
    3.4030    1.7500    0.0000 H   0  0  0  0  0  0  0  0  0  0  0  0
    4.5981    0.8200    0.0000 H   0  0  0  0  0  0  0  0  0  0  0  0
    6.8671   -0.8700    0.0000 H   0  0  0  0  0  0  0  0  0  0  0  0
    6.0010    1.2500    0.0000 H   0  0  0  0  0  0  0  0  0  0  0  0
    6.5422   -2.1426    0.0000 H   0  0  0  0  0  0  0  0  0  0  0  0
    6.9407   -1.4523    0.0000 H   0  0  0  0  0  0  0  0  0  0  0  0
    1.6900    1.4769    0.0000 H   0  0  0  0  0  0  0  0  0  0  0  0
    1.4631    0.6300    0.0000 H   0  0  0  0  0  0  0  0  0  0  0  0
    2.3100    0.4031    0.0000 H   0  0  0  0  0  0  0  0  0  0  0  0
    3.4860    2.4400    0.0000 H   0  0  0  0  0  0  0  0  0  0  0  0
    2.8660    3.0600    0.0000 H   0  0  0  0  0  0  0  0  0  0  0  0
    2.2460    2.4400    0.0000 H   0  0  0  0  0  0  0  0  0  0  0  0
    7.1962    0.5600    0.0000 H   0  0  0  0  0  0  0  0  0  0  0  0
    4.5981   -0.9400    0.0000 H   0  0  0  0  0  0  0  0  0  0  0  0
    6.0010   -3.3700    0.0000 H   0  0  0  0  0  0  0  0  0  0  0  0
    3.7320    3.5600    0.0000 H   0  0  0  0  0  0  0  0  0  0  0  0
    5.4641    3.5600    0.0000 H   0  0  0  0  0  0  0  0  0  0  0  0
    3.1951   -1.7500    0.0000 H   0  0  0  0  0  0  0  0  0  0  0  0
    4.5981   -4.1800    0.0000 H   0  0  0  0  0  0  0  0  0  0  0  0
    3.1951   -3.3700    0.0000 H   0  0  0  0  0  0  0  0  0  0  0  0
    8.3913    1.2500    0.0000 H   0  0  0  0  0  0  0  0  0  0  0  0
   11.1972   -0.3700    0.0000 H   0  0  0  0  0  0  0  0  0  0  0  0
   11.1972    1.2500    0.0000 H   0  0  0  0  0  0  0  0  0  0  0  0
  1 13  2  0  0  0  0
  2 28  1  0  0  0  0
  2 46  1  0  0  0  0
  3 28  1  0  0  0  0
  3 47  1  0  0  0  0
  4 20  2  0  0  0  0
 11  5  1  1  0  0  0
  5 13  1  0  0  0  0
  5 34  1  0  0  0  0
 12  6  1  1  0  0  0
  6 20  1  0  0  0  0
  6 43  1  0  0  0  0
  7 24  2  0  0  0  0
  7 26  1  0  0  0  0
  8 25  2  0  0  0  0
  8 27  1  0  0  0  0
  9 10  1  0  0  0  0
  9 11  1  0  0  0  0
  9 29  1  0  0  0  0
  9 30  1  0  0  0  0
 10 15  1  0  0  0  0
 10 16  1  0  0  0  0
 10 31  1  0  0  0  0
 11 28  1  0  0  0  0
 11 32  1  0  0  0  0
 12 13  1  0  0  0  0
 12 14  1  0  0  0  0
 12 33  1  0  0  0  0
 14 17  1  0  0  0  0
 14 35  1  0  0  0  0
 14 36  1  0  0  0  0
 15 37  1  0  0  0  0
 15 38  1  0  0  0  0
 15 39  1  0  0  0  0
 16 40  1  0  0  0  0
 16 41  1  0  0  0  0
 16 42  1  0  0  0  0
 17 18  2  0  0  0  0
 17 19  1  0  0  0  0
 18 21  1  0  0  0  0
 18 44  1  0  0  0  0
 19 22  2  0  0  0  0
 19 45  1  0  0  0  0
 20 24  1  0  0  0  0
 21 23  2  0  0  0  0
 21 48  1  0  0  0  0
 22 23  1  0  0  0  0
 22 49  1  0  0  0  0
 23 50  1  0  0  0  0
 24 25  1  0  0  0  0
 25 51  1  0  0  0  0
 26 27  2  0  0  0  0
 26 52  1  0  0  0  0
 27 53  1  0  0  0  0
M  END
> <PUBCHEM_COMPOUND_CID>
387447

> <PUBCHEM_COMPOUND_CANONICALIZED>
1

> <PUBCHEM_CACTVS_COMPLEXITY>
500

> <PUBCHEM_CACTVS_HBOND_ACCEPTOR>
6

> <PUBCHEM_CACTVS_HBOND_DONOR>
4

> <PUBCHEM_CACTVS_ROTATABLE_BOND>
9

> <PUBCHEM_CACTVS_SUBSKEYS>
AAADceJ7uAAAAAAAAAAAAAAAAAAAAAAAAAA8QAAAAAAAAAABwAAoHgAQCAAADSjBngQ+gJLIEACoAzV3VACCgCQ3EiAI2IG4dMgIYHrA0TGUIIgglgDIiMcYiICOAAAAAAAAAAAAAAAAAAAAAAAAAAAAAA==

> <PUBCHEM_IUPAC_OPENEYE_NAME>
[(1R)-3-methyl-1-[[(2S)-3-phenyl-2-(pyrazine-2-carbonylamino)propanoyl]amino]butyl]boronic acid

> <PUBCHEM_IUPAC_CAS_NAME>
[(1R)-3-methyl-1-[[(2S)-1-oxo-2-[[oxo(2-pyrazinyl)methyl]amino]-3-phenylpropyl]amino]butyl]boronic acid

> <PUBCHEM_IUPAC_NAME>
[(1R)-3-methyl-1-[[(2S)-3-phenyl-2-(pyrazine-2-carbonylamino)propanoyl]amino]butyl]boronic acid

> <PUBCHEM_IUPAC_SYSTEMATIC_NAME>
[(1R)-3-methyl-1-[[(2S)-3-phenyl-2-(pyrazin-2-ylcarbonylamino)propanoyl]amino]butyl]boronic acid

> <PUBCHEM_IUPAC_TRADITIONAL_NAME>
[(1R)-3-methyl-1-[[(2S)-3-phenyl-2-(pyrazinoylamino)propanoyl]amino]butyl]boronic acid

> <PUBCHEM_IUPAC_INCHI>
InChI=1S/C19H25BN4O4/c1-13(2)10-17(20(27)28)24-18(25)15(11-14-6-4-3-5-7-14)23-19(26)16-12-21-8-9-22-16/h3-9,12-13,15,17,27-28H,10-11H2,1-2H3,(H,23,26)(H,24,25)/t15-,17-/m0/s1

> <PUBCHEM_IUPAC_INCHIKEY>
GXJABQQUPOEUTA-RDJZCZTQSA-N

> <PUBCHEM_EXACT_MASS>
384.196886

> <PUBCHEM_MOLECULAR_FORMULA>
C19H25BN4O4

> <PUBCHEM_MOLECULAR_WEIGHT>
384.2372

> <PUBCHEM_OPENEYE_CAN_SMILES>
B(C(CC(C)C)NC(=O)C(CC1=CC=CC=C1)NC(=O)C2=NC=CN=C2)(O)O

> <PUBCHEM_OPENEYE_ISO_SMILES>
B([C@H](CC(C)C)NC(=O)[C@H](CC1=CC=CC=C1)NC(=O)C2=NC=CN=C2)(O)O

> <PUBCHEM_CACTVS_TPSA>
124

> <PUBCHEM_MONOISOTOPIC_WEIGHT>
384.196886

> <PUBCHEM_TOTAL_CHARGE>
0

> <PUBCHEM_HEAVY_ATOM_COUNT>
28

> <PUBCHEM_ATOM_DEF_STEREO_COUNT>
2

> <PUBCHEM_ATOM_UDEF_STEREO_COUNT>
0

> <PUBCHEM_BOND_DEF_STEREO_COUNT>
0

> <PUBCHEM_BOND_UDEF_STEREO_COUNT>
0

> <PUBCHEM_ISOTOPIC_ATOM_COUNT>
0

> <PUBCHEM_COMPONENT_COUNT>
1

> <PUBCHEM_CACTVS_TAUTO_COUNT>
4

> <PUBCHEM_COORDINATE_TYPE>
1
5
255

> <PUBCHEM_BONDANNOTATIONS>
17  18  8
17  19  8
18  21  8
19  22  8
21  23  8
22  23  8
24  25  8
26  27  8
11  5  5
12  6  5
7  24  8
7  26  8
8  25  8
8  27  8

$$$$
441276
  -OEChem-11121519512D

113119  0     1  0  0  0  0  0999 V2000
    5.1483   -5.5682    0.0000 O   0  0  0  0  0  0  0  0  0  0  0  0
    6.3053   -4.3057    0.0000 O   0  0  0  0  0  0  0  0  0  0  0  0
    7.0654   -2.9424    0.0000 O   0  0  0  0  0  0  0  0  0  0  0  0
    7.4821   -1.7597    0.0000 O   0  0  0  0  0  0  0  0  0  0  0  0
    2.4962   -2.9115    0.0000 O   0  0  0  0  0  0  0  0  0  0  0  0
    3.5446   -0.1287    0.0000 O   0  0  0  0  0  0  0  0  0  0  0  0
    2.8690   -1.7597    0.0000 O   0  0  0  0  0  0  0  0  0  0  0  0
    7.5875    0.6523    0.0000 O   0  0  0  0  0  0  0  0  0  0  0  0
    7.5913   -5.4660    0.0000 O   0  0  0  0  0  0  0  0  0  0  0  0
    7.5138   -4.6154    0.0000 O   0  0  0  0  0  0  0  0  0  0  0  0
    4.7693    1.0960    0.0000 O   0  0  0  0  0  0  0  0  0  0  0  0
    6.3628    1.8770    0.0000 O   0  0  0  0  0  0  0  0  0  0  0  0
    9.0017    2.0665    0.0000 O   0  0  0  0  0  0  0  0  0  0  0  0
    7.2593    5.2231    0.0000 O   0  0  0  0  0  0  0  0  0  0  0  0
    6.8110    3.5500    0.0000 N   0  0  0  0  0  0  0  0  0  0  0  0
    5.1755   -3.0663    0.0000 C   0  0  3  0  0  0  0  0  0  0  0  0
    5.3274   -4.0968    0.0000 C   0  0  2  0  0  0  0  0  0  0  0  0
    4.2517   -2.6836    0.0000 C   0  0  1  0  0  0  0  0  0  0  0  0
    4.5059   -4.7372    0.0000 C   0  0  1  0  0  0  0  0  0  0  0  0
    6.0994   -2.6836    0.0000 C   0  0  1  0  0  0  0  0  0  0  0  0
    6.4821   -1.7597    0.0000 C   0  0  2  0  0  0  0  0  0  0  0  0
    3.4156   -3.3049    0.0000 C   0  0  2  0  0  0  0  0  0  0  0  0
    3.5436   -4.3386    0.0000 C   0  0  0  0  0  0  0  0  0  0  0  0
    6.0994   -0.8358    0.0000 C   0  0  0  0  0  0  0  0  0  0  0  0
    5.9766   -4.9224    0.0000 C   0  0  0  0  0  0  0  0  0  0  0  0
    3.8690   -1.7597    0.0000 C   0  0  0  0  0  0  0  0  0  0  0  0
    7.1552   -1.0180    0.0000 C   0  0  0  0  0  0  0  0  0  0  0  0
    5.1755   -0.4532    0.0000 C   0  0  0  0  0  0  0  0  0  0  0  0
    3.3278   -2.3009    0.0000 C   0  0  0  0  0  0  0  0  0  0  0  0
    4.2517   -0.8358    0.0000 C   0  0  1  0  0  0  0  0  0  0  0  0
    6.8804   -0.0549    0.0000 C   0  0  1  0  0  0  0  0  0  0  0  0
    5.9172    0.2200    0.0000 C   0  0  0  0  0  0  0  0  0  0  0  0
    6.3971    0.2750    0.0000 C   0  0  0  0  0  0  0  0  0  0  0  0
    7.2102   -0.5382    0.0000 C   0  0  0  0  0  0  0  0  0  0  0  0
    5.6897    1.1937    0.0000 C   0  0  0  0  0  0  0  0  0  0  0  0
    6.6134   -5.2571    0.0000 C   0  0  0  0  0  0  0  0  0  0  0  0
    7.7724   -3.6495    0.0000 C   0  0  0  0  0  0  0  0  0  0  0  0
    5.9435   -5.9995    0.0000 C   0  0  0  0  0  0  0  0  0  0  0  0
    3.8034    0.8372    0.0000 C   0  0  0  0  0  0  0  0  0  0  0  0
    7.3287    1.6182    0.0000 C   0  0  0  0  0  0  0  0  0  0  0  0
    8.7384   -3.3907    0.0000 C   0  0  0  0  0  0  0  0  0  0  0  0
    8.0358    2.3253    0.0000 C   0  0  1  0  0  0  0  0  0  0  0  0
    3.0963    1.5443    0.0000 C   0  0  0  0  0  0  0  0  0  0  0  0
    8.9972   -2.4248    0.0000 C   0  0  0  0  0  0  0  0  0  0  0  0
    9.4455   -4.0978    0.0000 C   0  0  0  0  0  0  0  0  0  0  0  0
    7.7770    3.2912    0.0000 C   0  0  2  0  0  0  0  0  0  0  0  0
    9.9631   -2.1660    0.0000 C   0  0  0  0  0  0  0  0  0  0  0  0
   10.4114   -3.8390    0.0000 C   0  0  0  0  0  0  0  0  0  0  0  0
   10.6702   -2.8731    0.0000 C   0  0  0  0  0  0  0  0  0  0  0  0
    8.4841    3.9983    0.0000 C   0  0  0  0  0  0  0  0  0  0  0  0
    9.4500    3.7395    0.0000 C   0  0  0  0  0  0  0  0  0  0  0  0
    8.2253    4.9642    0.0000 C   0  0  0  0  0  0  0  0  0  0  0  0
    6.5522    4.5160    0.0000 C   0  0  0  0  0  0  0  0  0  0  0  0
   10.1571    4.4466    0.0000 C   0  0  0  0  0  0  0  0  0  0  0  0
    8.9324    5.6714    0.0000 C   0  0  0  0  0  0  0  0  0  0  0  0
    5.5863    4.7748    0.0000 C   0  0  0  0  0  0  0  0  0  0  0  0
    9.8983    5.4125    0.0000 C   0  0  0  0  0  0  0  0  0  0  0  0
    5.3275    5.7407    0.0000 C   0  0  0  0  0  0  0  0  0  0  0  0
    4.8792    4.0677    0.0000 C   0  0  0  0  0  0  0  0  0  0  0  0
    4.3616    5.9995    0.0000 C   0  0  0  0  0  0  0  0  0  0  0  0
    3.9133    4.3265    0.0000 C   0  0  0  0  0  0  0  0  0  0  0  0
    3.6545    5.2924    0.0000 C   0  0  0  0  0  0  0  0  0  0  0  0
    5.7148   -3.3721    0.0000 H   0  0  0  0  0  0  0  0  0  0  0  0
    3.9897   -5.4125    0.0000 H   0  0  0  0  0  0  0  0  0  0  0  0
    6.1400   -3.3023    0.0000 H   0  0  0  0  0  0  0  0  0  0  0  0
    3.3430   -2.6892    0.0000 H   0  0  0  0  0  0  0  0  0  0  0  0
    2.9243   -4.3084    0.0000 H   0  0  0  0  0  0  0  0  0  0  0  0
    3.4078   -4.9436    0.0000 H   0  0  0  0  0  0  0  0  0  0  0  0
    6.3585   -5.4108    0.0000 H   0  0  0  0  0  0  0  0  0  0  0  0
    6.4645   -4.5398    0.0000 H   0  0  0  0  0  0  0  0  0  0  0  0
    7.5297   -1.5121    0.0000 H   0  0  0  0  0  0  0  0  0  0  0  0
    7.7099   -0.7410    0.0000 H   0  0  0  0  0  0  0  0  0  0  0  0
    3.5650   -1.7281    0.0000 H   0  0  0  0  0  0  0  0  0  0  0  0
    2.7550   -2.0636    0.0000 H   0  0  0  0  0  0  0  0  0  0  0  0
    3.0905   -2.8737    0.0000 H   0  0  0  0  0  0  0  0  0  0  0  0
    4.3726   -0.2277    0.0000 H   0  0  0  0  0  0  0  0  0  0  0  0
    7.4806   -0.2105    0.0000 H   0  0  0  0  0  0  0  0  0  0  0  0
    6.9959    0.1145    0.0000 H   0  0  0  0  0  0  0  0  0  0  0  0
    6.5575    0.8739    0.0000 H   0  0  0  0  0  0  0  0  0  0  0  0
    5.7982    0.4354    0.0000 H   0  0  0  0  0  0  0  0  0  0  0  0
    7.3707   -1.1371    0.0000 H   0  0  0  0  0  0  0  0  0  0  0  0
    7.8091   -0.3777    0.0000 H   0  0  0  0  0  0  0  0  0  0  0  0
    7.0498    0.0607    0.0000 H   0  0  0  0  0  0  0  0  0  0  0  0
    7.7921   -1.2228    0.0000 H   0  0  0  0  0  0  0  0  0  0  0  0
    2.0000   -3.2833    0.0000 H   0  0  0  0  0  0  0  0  0  0  0  0
    6.2935    1.3348    0.0000 H   0  0  0  0  0  0  0  0  0  0  0  0
    5.5487    1.7975    0.0000 H   0  0  0  0  0  0  0  0  0  0  0  0
    5.0860    1.0527    0.0000 H   0  0  0  0  0  0  0  0  0  0  0  0
    5.4832   -5.5842    0.0000 H   0  0  0  0  0  0  0  0  0  0  0  0
    5.5282   -6.4598    0.0000 H   0  0  0  0  0  0  0  0  0  0  0  0
    6.4038   -6.4149    0.0000 H   0  0  0  0  0  0  0  0  0  0  0  0
    8.4742    2.7637    0.0000 H   0  0  0  0  0  0  0  0  0  0  0  0
    3.5347    1.9827    0.0000 H   0  0  0  0  0  0  0  0  0  0  0  0
    2.6579    1.9827    0.0000 H   0  0  0  0  0  0  0  0  0  0  0  0
    2.6579    1.1059    0.0000 H   0  0  0  0  0  0  0  0  0  0  0  0
    8.5588   -1.9864    0.0000 H   0  0  0  0  0  0  0  0  0  0  0  0
    9.2850   -4.6967    0.0000 H   0  0  0  0  0  0  0  0  0  0  0  0
    7.6165    3.8901    0.0000 H   0  0  0  0  0  0  0  0  0  0  0  0
   10.1236   -1.5671    0.0000 H   0  0  0  0  0  0  0  0  0  0  0  0
   10.8498   -4.2774    0.0000 H   0  0  0  0  0  0  0  0  0  0  0  0
    9.1622    1.4676    0.0000 H   0  0  0  0  0  0  0  0  0  0  0  0
   11.2691   -2.7126    0.0000 H   0  0  0  0  0  0  0  0  0  0  0  0
    6.3726    3.1116    0.0000 H   0  0  0  0  0  0  0  0  0  0  0  0
    9.6105    3.1406    0.0000 H   0  0  0  0  0  0  0  0  0  0  0  0
    7.6264    5.1247    0.0000 H   0  0  0  0  0  0  0  0  0  0  0  0
   10.7560    4.2861    0.0000 H   0  0  0  0  0  0  0  0  0  0  0  0
    8.7719    6.2702    0.0000 H   0  0  0  0  0  0  0  0  0  0  0  0
   10.3367    5.8509    0.0000 H   0  0  0  0  0  0  0  0  0  0  0  0
    5.7659    6.1791    0.0000 H   0  0  0  0  0  0  0  0  0  0  0  0
    5.0397    3.4688    0.0000 H   0  0  0  0  0  0  0  0  0  0  0  0
    4.2011    6.5984    0.0000 H   0  0  0  0  0  0  0  0  0  0  0  0
    3.4749    3.8881    0.0000 H   0  0  0  0  0  0  0  0  0  0  0  0
    3.0556    5.4529    0.0000 H   0  0  0  0  0  0  0  0  0  0  0  0
  1 19  1  0  0  0  0
  1 25  1  0  0  0  0
 17  2  1  1  0  0  0
  2 36  1  0  0  0  0
  3 20  1  0  0  0  0
  3 37  1  0  0  0  0
 21  4  1  6  0  0  0
  4 84  1  0  0  0  0
 22  5  1  6  0  0  0
  5 85  1  0  0  0  0
 30  6  1  6  0  0  0
  6 39  1  0  0  0  0
  7 26  2  0  0  0  0
 31  8  1  1  0  0  0
  8 40  1  0  0  0  0
  9 36  2  0  0  0  0
 10 37  2  0  0  0  0
 11 39  2  0  0  0  0
 12 40  2  0  0  0  0
 42 13  1  1  0  0  0
 13101  1  0  0  0  0
 14 53  2  0  0  0  0
 46 15  1  1  0  0  0
 15 53  1  0  0  0  0
 15103  1  0  0  0  0
 16 17  1  0  0  0  0
 16 18  1  0  0  0  0
 16 20  1  0  0  0  0
 16 63  1  0  0  0  0
 17 19  1  0  0  0  0
 17 25  1  0  0  0  0
 18 22  1  0  0  0  0
 18 26  1  0  0  0  0
 18 29  1  6  0  0  0
 19 23  1  0  0  0  0
 19 64  1  1  0  0  0
 20 21  1  0  0  0  0
 20 65  1  0  0  0  0
 21 24  1  0  0  0  0
 21 27  1  0  0  0  0
 22 23  1  0  0  0  0
 22 66  1  0  0  0  0
 23 67  1  0  0  0  0
 23 68  1  0  0  0  0
 24 28  1  0  0  0  0
 24 33  1  0  0  0  0
 24 34  1  0  0  0  0
 25 69  1  0  0  0  0
 25 70  1  0  0  0  0
 26 30  1  0  0  0  0
 27 31  1  0  0  0  0
 27 71  1  0  0  0  0
 27 72  1  0  0  0  0
 28 30  1  0  0  0  0
 28 32  2  0  0  0  0
 29 73  1  0  0  0  0
 29 74  1  0  0  0  0
 29 75  1  0  0  0  0
 30 76  1  0  0  0  0
 31 32  1  0  0  0  0
 31 77  1  0  0  0  0
 32 35  1  0  0  0  0
 33 78  1  0  0  0  0
 33 79  1  0  0  0  0
 33 80  1  0  0  0  0
 34 81  1  0  0  0  0
 34 82  1  0  0  0  0
 34 83  1  0  0  0  0
 35 86  1  0  0  0  0
 35 87  1  0  0  0  0
 35 88  1  0  0  0  0
 36 38  1  0  0  0  0
 37 41  1  0  0  0  0
 38 89  1  0  0  0  0
 38 90  1  0  0  0  0
 38 91  1  0  0  0  0
 39 43  1  0  0  0  0
 40 42  1  0  0  0  0
 41 44  2  0  0  0  0
 41 45  1  0  0  0  0
 42 46  1  0  0  0  0
 42 92  1  0  0  0  0
 43 93  1  0  0  0  0
 43 94  1  0  0  0  0
 43 95  1  0  0  0  0
 44 47  1  0  0  0  0
 44 96  1  0  0  0  0
 45 48  2  0  0  0  0
 45 97  1  0  0  0  0
 46 50  1  0  0  0  0
 46 98  1  0  0  0  0
 47 49  2  0  0  0  0
 47 99  1  0  0  0  0
 48 49  1  0  0  0  0
 48100  1  0  0  0  0
 49102  1  0  0  0  0
 50 51  2  0  0  0  0
 50 52  1  0  0  0  0
 51 54  1  0  0  0  0
 51104  1  0  0  0  0
 52 55  2  0  0  0  0
 52105  1  0  0  0  0
 53 56  1  0  0  0  0
 54 57  2  0  0  0  0
 54106  1  0  0  0  0
 55 57  1  0  0  0  0
 55107  1  0  0  0  0
 56 58  2  0  0  0  0
 56 59  1  0  0  0  0
 57108  1  0  0  0  0
 58 60  1  0  0  0  0
 58109  1  0  0  0  0
 59 61  2  0  0  0  0
 59110  1  0  0  0  0
 60 62  2  0  0  0  0
 60111  1  0  0  0  0
 61 62  1  0  0  0  0
 61112  1  0  0  0  0
 62113  1  0  0  0  0
M  END
> <PUBCHEM_COMPOUND_CID>
441276

> <PUBCHEM_COMPOUND_CANONICALIZED>
1

> <PUBCHEM_CACTVS_COMPLEXITY>
1790

> <PUBCHEM_CACTVS_HBOND_ACCEPTOR>
14

> <PUBCHEM_CACTVS_HBOND_DONOR>
4

> <PUBCHEM_CACTVS_ROTATABLE_BOND>
14

> <PUBCHEM_CACTVS_SUBSKEYS>
AAADcfB+PAAAAAAAAAAAAAAAAABIAAAAAAAwYMGCAAAaIACBUAAAHgAQCAAAD3zhmAYyCILABgCIAqHSGAKCAAAkAAAIiIFIDMgLNj6AtR2GcQhn9gGbqYfa7PzPgAAAAAAAAABCAAYQADCAAAAAAAAAAA==

> <PUBCHEM_IUPAC_INCHI>
InChI=1S/C47H51NO14/c1-25-31(60-43(56)36(52)35(28-16-10-7-11-17-28)48-41(54)29-18-12-8-13-19-29)23-47(57)40(61-42(55)30-20-14-9-15-21-30)38-45(6,32(51)22-33-46(38,24-58-33)62-27(3)50)39(53)37(59-26(2)49)34(25)44(47,4)5/h7-21,31-33,35-38,40,51-52,57H,22-24H2,1-6H3,(H,48,54)/t31-,32-,33+,35-,36+,37+,38?,40-,45+,46-,47+/m0/s1

> <PUBCHEM_IUPAC_INCHIKEY>
RCINICONZNJXQF-VAZQATRQSA-N

> <PUBCHEM_XLOGP3>
2.5

> <PUBCHEM_EXACT_MASS>
853.330955

> <PUBCHEM_MOLECULAR_FORMULA>
C47H51NO14

> <PUBCHEM_MOLECULAR_WEIGHT>
853.90614

> <PUBCHEM_OPENEYE_CAN_SMILES>
CC1=C2C(C(=O)C3(C(CC4C(C3C(C(C2(C)C)(CC1OC(=O)C(C(C5=CC=CC=C5)NC(=O)C6=CC=CC=C6)O)O)OC(=O)C7=CC=CC=C7)(CO4)OC(=O)C)O)C)OC(=O)C

> <PUBCHEM_OPENEYE_ISO_SMILES>
CC1=C2[C@H](C(=O)[C@@]3([C@H](C[C@@H]4[C@](C3[C@@H]([C@@](C2(C)C)(C[C@@H]1OC(=O)[C@@H]([C@H](C5=CC=CC=C5)NC(=O)C6=CC=CC=C6)O)O)OC(=O)C7=CC=CC=C7)(CO4)OC(=O)C)O)C)OC(=O)C

> <PUBCHEM_CACTVS_TPSA>
221

> <PUBCHEM_MONOISOTOPIC_WEIGHT>
853.330955

> <PUBCHEM_TOTAL_CHARGE>
0

> <PUBCHEM_HEAVY_ATOM_COUNT>
62

> <PUBCHEM_ATOM_DEF_STEREO_COUNT>
10

> <PUBCHEM_ATOM_UDEF_STEREO_COUNT>
1

> <PUBCHEM_BOND_DEF_STEREO_COUNT>
0

> <PUBCHEM_BOND_UDEF_STEREO_COUNT>
0

> <PUBCHEM_ISOTOPIC_ATOM_COUNT>
0

> <PUBCHEM_COMPONENT_COUNT>
1

> <PUBCHEM_CACTVS_TAUTO_COUNT>
6

> <PUBCHEM_COORDINATE_TYPE>
1
5
255

> <PUBCHEM_BONDANNOTATIONS>
42  13  5
46  15  5
16  20  3
18  29  6
19  64  5
17  2  5
21  4  6
41  44  8
41  45  8
44  47  8
45  48  8
47  49  8
48  49  8
22  5  6
50  51  8
50  52  8
51  54  8
52  55  8
54  57  8
55  57  8
56  58  8
56  59  8
58  60  8
59  61  8
30  6  6
60  62  8
61  62  8
31  8  5

$$$$
449459
  -OEChem-11121519512D

 58 60  0     0  0  0  0  0  0999 V2000
    5.4641   -1.8100    0.0000 O   0  0  0  0  0  0  0  0  0  0  0  0
    8.9282    4.1900    0.0000 O   0  0  0  0  0  0  0  0  0  0  0  0
    3.7320   -3.8100    0.0000 N   0  0  0  0  0  0  0  0  0  0  0  0
    5.4641    2.1900    0.0000 C   0  0  0  0  0  0  0  0  0  0  0  0
    4.5981    2.6900    0.0000 C   0  0  0  0  0  0  0  0  0  0  0  0
    5.4641    1.1900    0.0000 C   0  0  0  0  0  0  0  0  0  0  0  0
    4.5981    3.6900    0.0000 C   0  0  0  0  0  0  0  0  0  0  0  0
    6.3301    2.6900    0.0000 C   0  0  0  0  0  0  0  0  0  0  0  0
    3.7320    2.1900    0.0000 C   0  0  0  0  0  0  0  0  0  0  0  0
    4.5981    0.6900    0.0000 C   0  0  0  0  0  0  0  0  0  0  0  0
    6.3301    0.6900    0.0000 C   0  0  0  0  0  0  0  0  0  0  0  0
    3.7320    4.1900    0.0000 C   0  0  0  0  0  0  0  0  0  0  0  0
    5.4641   -0.8100    0.0000 C   0  0  0  0  0  0  0  0  0  0  0  0
    7.1962    2.1900    0.0000 C   0  0  0  0  0  0  0  0  0  0  0  0
    6.3301    3.6900    0.0000 C   0  0  0  0  0  0  0  0  0  0  0  0
    4.5981   -0.3100    0.0000 C   0  0  0  0  0  0  0  0  0  0  0  0
    6.3301   -0.3100    0.0000 C   0  0  0  0  0  0  0  0  0  0  0  0
    2.8660    2.6900    0.0000 C   0  0  0  0  0  0  0  0  0  0  0  0
    3.7320    1.1900    0.0000 C   0  0  0  0  0  0  0  0  0  0  0  0
    4.5981   -3.3100    0.0000 C   0  0  0  0  0  0  0  0  0  0  0  0
    4.5981   -2.3100    0.0000 C   0  0  0  0  0  0  0  0  0  0  0  0
    8.0622    2.6900    0.0000 C   0  0  0  0  0  0  0  0  0  0  0  0
    7.1962    4.1900    0.0000 C   0  0  0  0  0  0  0  0  0  0  0  0
    2.0000    2.1900    0.0000 C   0  0  0  0  0  0  0  0  0  0  0  0
    2.8660    0.6900    0.0000 C   0  0  0  0  0  0  0  0  0  0  0  0
    8.0622    3.6900    0.0000 C   0  0  0  0  0  0  0  0  0  0  0  0
    2.0000    1.1900    0.0000 C   0  0  0  0  0  0  0  0  0  0  0  0
    3.7320   -4.8100    0.0000 C   0  0  0  0  0  0  0  0  0  0  0  0
    2.8660   -3.3100    0.0000 C   0  0  0  0  0  0  0  0  0  0  0  0
    5.2087    3.5823    0.0000 H   0  0  0  0  0  0  0  0  0  0  0  0
    4.8101    4.2726    0.0000 H   0  0  0  0  0  0  0  0  0  0  0  0
    4.0611    1.0000    0.0000 H   0  0  0  0  0  0  0  0  0  0  0  0
    6.8671    1.0000    0.0000 H   0  0  0  0  0  0  0  0  0  0  0  0
    4.0420    4.7269    0.0000 H   0  0  0  0  0  0  0  0  0  0  0  0
    3.1951    4.5000    0.0000 H   0  0  0  0  0  0  0  0  0  0  0  0
    3.4220    3.6531    0.0000 H   0  0  0  0  0  0  0  0  0  0  0  0
    7.1962    1.5700    0.0000 H   0  0  0  0  0  0  0  0  0  0  0  0
    5.7932    4.0000    0.0000 H   0  0  0  0  0  0  0  0  0  0  0  0
    4.0611   -0.6200    0.0000 H   0  0  0  0  0  0  0  0  0  0  0  0
    6.8671   -0.6200    0.0000 H   0  0  0  0  0  0  0  0  0  0  0  0
    2.8660    3.3100    0.0000 H   0  0  0  0  0  0  0  0  0  0  0  0
    4.2690    0.8800    0.0000 H   0  0  0  0  0  0  0  0  0  0  0  0
    4.8101   -3.8926    0.0000 H   0  0  0  0  0  0  0  0  0  0  0  0
    5.2087   -3.2023    0.0000 H   0  0  0  0  0  0  0  0  0  0  0  0
    4.3860   -1.7274    0.0000 H   0  0  0  0  0  0  0  0  0  0  0  0
    3.9875   -2.4177    0.0000 H   0  0  0  0  0  0  0  0  0  0  0  0
    8.5991    2.3800    0.0000 H   0  0  0  0  0  0  0  0  0  0  0  0
    7.1962    4.8100    0.0000 H   0  0  0  0  0  0  0  0  0  0  0  0
    1.4631    2.5000    0.0000 H   0  0  0  0  0  0  0  0  0  0  0  0
    2.8660    0.0700    0.0000 H   0  0  0  0  0  0  0  0  0  0  0  0
    1.4631    0.8800    0.0000 H   0  0  0  0  0  0  0  0  0  0  0  0
    3.1120   -4.8100    0.0000 H   0  0  0  0  0  0  0  0  0  0  0  0
    3.7320   -5.4300    0.0000 H   0  0  0  0  0  0  0  0  0  0  0  0
    4.3520   -4.8100    0.0000 H   0  0  0  0  0  0  0  0  0  0  0  0
    3.1760   -2.7731    0.0000 H   0  0  0  0  0  0  0  0  0  0  0  0
    2.3291   -3.0000    0.0000 H   0  0  0  0  0  0  0  0  0  0  0  0
    2.5560   -3.8469    0.0000 H   0  0  0  0  0  0  0  0  0  0  0  0
    8.9282    4.8100    0.0000 H   0  0  0  0  0  0  0  0  0  0  0  0
  1 13  1  0  0  0  0
  1 21  1  0  0  0  0
  2 26  1  0  0  0  0
  2 58  1  0  0  0  0
  3 20  1  0  0  0  0
  3 28  1  0  0  0  0
  3 29  1  0  0  0  0
  4  5  2  0  0  0  0
  4  6  1  0  0  0  0
  4  8  1  0  0  0  0
  5  7  1  0  0  0  0
  5  9  1  0  0  0  0
  6 10  2  0  0  0  0
  6 11  1  0  0  0  0
  7 12  1  0  0  0  0
  7 30  1  0  0  0  0
  7 31  1  0  0  0  0
  8 14  2  0  0  0  0
  8 15  1  0  0  0  0
  9 18  2  0  0  0  0
  9 19  1  0  0  0  0
 10 16  1  0  0  0  0
 10 32  1  0  0  0  0
 11 17  2  0  0  0  0
 11 33  1  0  0  0  0
 12 34  1  0  0  0  0
 12 35  1  0  0  0  0
 12 36  1  0  0  0  0
 13 16  2  0  0  0  0
 13 17  1  0  0  0  0
 14 22  1  0  0  0  0
 14 37  1  0  0  0  0
 15 23  2  0  0  0  0
 15 38  1  0  0  0  0
 16 39  1  0  0  0  0
 17 40  1  0  0  0  0
 18 24  1  0  0  0  0
 18 41  1  0  0  0  0
 19 25  2  0  0  0  0
 19 42  1  0  0  0  0
 20 21  1  0  0  0  0
 20 43  1  0  0  0  0
 20 44  1  0  0  0  0
 21 45  1  0  0  0  0
 21 46  1  0  0  0  0
 22 26  2  0  0  0  0
 22 47  1  0  0  0  0
 23 26  1  0  0  0  0
 23 48  1  0  0  0  0
 24 27  2  0  0  0  0
 24 49  1  0  0  0  0
 25 27  1  0  0  0  0
 25 50  1  0  0  0  0
 27 51  1  0  0  0  0
 28 52  1  0  0  0  0
 28 53  1  0  0  0  0
 28 54  1  0  0  0  0
 29 55  1  0  0  0  0
 29 56  1  0  0  0  0
 29 57  1  0  0  0  0
M  END
> <PUBCHEM_COMPOUND_CID>
449459

> <PUBCHEM_COMPOUND_CANONICALIZED>
1

> <PUBCHEM_CACTVS_COMPLEXITY>
493

> <PUBCHEM_CACTVS_HBOND_ACCEPTOR>
3

> <PUBCHEM_CACTVS_HBOND_DONOR>
1

> <PUBCHEM_CACTVS_ROTATABLE_BOND>
8

> <PUBCHEM_CACTVS_SUBSKEYS>
AAADceB6MAAAAAAAAAAAAAAAAAAAAAAAAAAwYMAAAAAAAAABUAAAHgAACAAADAThmAYyBoMABgCAAiBCAAACCAAgIAAIiAAOCIgOJiKGMRqDeCCkwBEYuAeAwOAOIAAAAAAAAABAAAAAAAAAAAAAAAAAAA==

> <PUBCHEM_IUPAC_OPENEYE_NAME>
4-[(Z)-1-[4-[2-(dimethylamino)ethoxy]phenyl]-2-phenyl-but-1-enyl]phenol

> <PUBCHEM_IUPAC_CAS_NAME>
4-[(Z)-1-[4-[2-(dimethylamino)ethoxy]phenyl]-2-phenylbut-1-enyl]phenol

> <PUBCHEM_IUPAC_NAME>
4-[(Z)-1-[4-[2-(dimethylamino)ethoxy]phenyl]-2-phenylbut-1-enyl]phenol

> <PUBCHEM_IUPAC_SYSTEMATIC_NAME>
4-[(Z)-1-[4-[2-(dimethylamino)ethoxy]phenyl]-2-phenyl-but-1-enyl]phenol

> <PUBCHEM_IUPAC_TRADITIONAL_NAME>
4-[(Z)-1-[4-[2-(dimethylamino)ethoxy]phenyl]-2-phenyl-but-1-enyl]phenol

> <PUBCHEM_IUPAC_INCHI>
InChI=1S/C26H29NO2/c1-4-25(20-8-6-5-7-9-20)26(21-10-14-23(28)15-11-21)22-12-16-24(17-13-22)29-19-18-27(2)3/h5-17,28H,4,18-19H2,1-3H3/b26-25-

> <PUBCHEM_IUPAC_INCHIKEY>
TXUZVZSFRXZGTL-QPLCGJKRSA-N

> <PUBCHEM_XLOGP3_AA>
6.8

> <PUBCHEM_EXACT_MASS>
387.219829

> <PUBCHEM_MOLECULAR_FORMULA>
C26H29NO2

> <PUBCHEM_MOLECULAR_WEIGHT>
387.51396

> <PUBCHEM_OPENEYE_CAN_SMILES>
CCC(=C(C1=CC=C(C=C1)O)C2=CC=C(C=C2)OCCN(C)C)C3=CC=CC=C3

> <PUBCHEM_OPENEYE_ISO_SMILES>
CC/C(=C(\C1=CC=C(C=C1)O)/C2=CC=C(C=C2)OCCN(C)C)/C3=CC=CC=C3

> <PUBCHEM_CACTVS_TPSA>
32.7

> <PUBCHEM_MONOISOTOPIC_WEIGHT>
387.219829

> <PUBCHEM_TOTAL_CHARGE>
0

> <PUBCHEM_HEAVY_ATOM_COUNT>
29

> <PUBCHEM_ATOM_DEF_STEREO_COUNT>
0

> <PUBCHEM_ATOM_UDEF_STEREO_COUNT>
0

> <PUBCHEM_BOND_DEF_STEREO_COUNT>
1

> <PUBCHEM_BOND_UDEF_STEREO_COUNT>
0

> <PUBCHEM_ISOTOPIC_ATOM_COUNT>
0

> <PUBCHEM_COMPONENT_COUNT>
1

> <PUBCHEM_CACTVS_TAUTO_COUNT>
79

> <PUBCHEM_COORDINATE_TYPE>
1
5
255

> <PUBCHEM_BONDANNOTATIONS>
10  16  8
11  17  8
13  16  8
13  17  8
14  22  8
15  23  8
18  24  8
19  25  8
22  26  8
23  26  8
24  27  8
25  27  8
6  10  8
6  11  8
8  14  8
8  15  8
9  18  8
9  19  8

$$$$
2733526
  -OEChem-11121519512D

 57 59  0     0  0  0  0  0  0999 V2000
    5.4641   -1.5000    0.0000 O   0  0  0  0  0  0  0  0  0  0  0  0
    3.7320   -3.5000    0.0000 N   0  0  0  0  0  0  0  0  0  0  0  0
    5.4641    2.5000    0.0000 C   0  0  0  0  0  0  0  0  0  0  0  0
    4.5981    3.0000    0.0000 C   0  0  0  0  0  0  0  0  0  0  0  0
    5.4641    1.5000    0.0000 C   0  0  0  0  0  0  0  0  0  0  0  0
    4.5981    4.0000    0.0000 C   0  0  0  0  0  0  0  0  0  0  0  0
    6.3301    3.0000    0.0000 C   0  0  0  0  0  0  0  0  0  0  0  0
    3.7320    2.5000    0.0000 C   0  0  0  0  0  0  0  0  0  0  0  0
    4.5981    1.0000    0.0000 C   0  0  0  0  0  0  0  0  0  0  0  0
    6.3301    1.0000    0.0000 C   0  0  0  0  0  0  0  0  0  0  0  0
    3.7320    4.5000    0.0000 C   0  0  0  0  0  0  0  0  0  0  0  0
    5.4641   -0.5000    0.0000 C   0  0  0  0  0  0  0  0  0  0  0  0
    4.5981    0.0000    0.0000 C   0  0  0  0  0  0  0  0  0  0  0  0
    6.3301    0.0000    0.0000 C   0  0  0  0  0  0  0  0  0  0  0  0
    7.1962    2.5000    0.0000 C   0  0  0  0  0  0  0  0  0  0  0  0
    6.3301    4.0000    0.0000 C   0  0  0  0  0  0  0  0  0  0  0  0
    2.8660    3.0000    0.0000 C   0  0  0  0  0  0  0  0  0  0  0  0
    3.7320    1.5000    0.0000 C   0  0  0  0  0  0  0  0  0  0  0  0
    4.5981   -3.0000    0.0000 C   0  0  0  0  0  0  0  0  0  0  0  0
    4.5981   -2.0000    0.0000 C   0  0  0  0  0  0  0  0  0  0  0  0
    8.0622    3.0000    0.0000 C   0  0  0  0  0  0  0  0  0  0  0  0
    7.1962    4.5000    0.0000 C   0  0  0  0  0  0  0  0  0  0  0  0
    2.0000    2.5000    0.0000 C   0  0  0  0  0  0  0  0  0  0  0  0
    2.8660    1.0000    0.0000 C   0  0  0  0  0  0  0  0  0  0  0  0
    8.0622    4.0000    0.0000 C   0  0  0  0  0  0  0  0  0  0  0  0
    2.0000    1.5000    0.0000 C   0  0  0  0  0  0  0  0  0  0  0  0
    3.7320   -4.5000    0.0000 C   0  0  0  0  0  0  0  0  0  0  0  0
    2.8660   -3.0000    0.0000 C   0  0  0  0  0  0  0  0  0  0  0  0
    5.2087    3.8923    0.0000 H   0  0  0  0  0  0  0  0  0  0  0  0
    4.8101    4.5826    0.0000 H   0  0  0  0  0  0  0  0  0  0  0  0
    4.0611    1.3100    0.0000 H   0  0  0  0  0  0  0  0  0  0  0  0
    6.8671    1.3100    0.0000 H   0  0  0  0  0  0  0  0  0  0  0  0
    4.0420    5.0369    0.0000 H   0  0  0  0  0  0  0  0  0  0  0  0
    3.1951    4.8100    0.0000 H   0  0  0  0  0  0  0  0  0  0  0  0
    3.4220    3.9631    0.0000 H   0  0  0  0  0  0  0  0  0  0  0  0
    4.0611   -0.3100    0.0000 H   0  0  0  0  0  0  0  0  0  0  0  0
    6.8671   -0.3100    0.0000 H   0  0  0  0  0  0  0  0  0  0  0  0
    7.1962    1.8800    0.0000 H   0  0  0  0  0  0  0  0  0  0  0  0
    5.7932    4.3100    0.0000 H   0  0  0  0  0  0  0  0  0  0  0  0
    4.8101   -3.5826    0.0000 H   0  0  0  0  0  0  0  0  0  0  0  0
    5.2087   -2.8923    0.0000 H   0  0  0  0  0  0  0  0  0  0  0  0
    2.8660    3.6200    0.0000 H   0  0  0  0  0  0  0  0  0  0  0  0
    4.2690    1.1900    0.0000 H   0  0  0  0  0  0  0  0  0  0  0  0
    4.3860   -1.4174    0.0000 H   0  0  0  0  0  0  0  0  0  0  0  0
    3.9875   -2.1077    0.0000 H   0  0  0  0  0  0  0  0  0  0  0  0
    8.5991    2.6900    0.0000 H   0  0  0  0  0  0  0  0  0  0  0  0
    7.1962    5.1200    0.0000 H   0  0  0  0  0  0  0  0  0  0  0  0
    1.4631    2.8100    0.0000 H   0  0  0  0  0  0  0  0  0  0  0  0
    2.8660    0.3800    0.0000 H   0  0  0  0  0  0  0  0  0  0  0  0
    8.5991    4.3100    0.0000 H   0  0  0  0  0  0  0  0  0  0  0  0
    1.4631    1.1900    0.0000 H   0  0  0  0  0  0  0  0  0  0  0  0
    3.1120   -4.5000    0.0000 H   0  0  0  0  0  0  0  0  0  0  0  0
    3.7320   -5.1200    0.0000 H   0  0  0  0  0  0  0  0  0  0  0  0
    4.3520   -4.5000    0.0000 H   0  0  0  0  0  0  0  0  0  0  0  0
    3.1760   -2.4631    0.0000 H   0  0  0  0  0  0  0  0  0  0  0  0
    2.3291   -2.6900    0.0000 H   0  0  0  0  0  0  0  0  0  0  0  0
    2.5560   -3.5369    0.0000 H   0  0  0  0  0  0  0  0  0  0  0  0
  1 12  1  0  0  0  0
  1 20  1  0  0  0  0
  2 19  1  0  0  0  0
  2 27  1  0  0  0  0
  2 28  1  0  0  0  0
  3  4  2  0  0  0  0
  3  5  1  0  0  0  0
  3  7  1  0  0  0  0
  4  6  1  0  0  0  0
  4  8  1  0  0  0  0
  5  9  2  0  0  0  0
  5 10  1  0  0  0  0
  6 11  1  0  0  0  0
  6 29  1  0  0  0  0
  6 30  1  0  0  0  0
  7 15  2  0  0  0  0
  7 16  1  0  0  0  0
  8 17  2  0  0  0  0
  8 18  1  0  0  0  0
  9 13  1  0  0  0  0
  9 31  1  0  0  0  0
 10 14  2  0  0  0  0
 10 32  1  0  0  0  0
 11 33  1  0  0  0  0
 11 34  1  0  0  0  0
 11 35  1  0  0  0  0
 12 13  2  0  0  0  0
 12 14  1  0  0  0  0
 13 36  1  0  0  0  0
 14 37  1  0  0  0  0
 15 21  1  0  0  0  0
 15 38  1  0  0  0  0
 16 22  2  0  0  0  0
 16 39  1  0  0  0  0
 17 23  1  0  0  0  0
 17 42  1  0  0  0  0
 18 24  2  0  0  0  0
 18 43  1  0  0  0  0
 19 20  1  0  0  0  0
 19 40  1  0  0  0  0
 19 41  1  0  0  0  0
 20 44  1  0  0  0  0
 20 45  1  0  0  0  0
 21 25  2  0  0  0  0
 21 46  1  0  0  0  0
 22 25  1  0  0  0  0
 22 47  1  0  0  0  0
 23 26  2  0  0  0  0
 23 48  1  0  0  0  0
 24 26  1  0  0  0  0
 24 49  1  0  0  0  0
 25 50  1  0  0  0  0
 26 51  1  0  0  0  0
 27 52  1  0  0  0  0
 27 53  1  0  0  0  0
 27 54  1  0  0  0  0
 28 55  1  0  0  0  0
 28 56  1  0  0  0  0
 28 57  1  0  0  0  0
M  END
> <PUBCHEM_COMPOUND_CID>
2733526

> <PUBCHEM_COMPOUND_CANONICALIZED>
1

> <PUBCHEM_CACTVS_COMPLEXITY>
463

> <PUBCHEM_CACTVS_HBOND_ACCEPTOR>
2

> <PUBCHEM_CACTVS_HBOND_DONOR>
0

> <PUBCHEM_CACTVS_ROTATABLE_BOND>
8

> <PUBCHEM_CACTVS_SUBSKEYS>
AAADceB6IAAAAAAAAAAAAAAAAAAAAAAAAAAwYMAAAAAAAAABUAAAHgAAAAAADAThmAYyBoMABACAAiBCAAACCAAgIAAIiAAOCIgOJiKEMRqDOCCkwBEYqAeAwOAOIAAAAAAAAABAAAAAAAAAAAAAAAAAAA==

> <PUBCHEM_IUPAC_OPENEYE_NAME>
2-[4-[(Z)-1,2-diphenylbut-1-enyl]phenoxy]-N,N-dimethyl-ethanamine

> <PUBCHEM_IUPAC_CAS_NAME>
2-[4-[(Z)-1,2-diphenylbut-1-enyl]phenoxy]-N,N-dimethylethanamine

> <PUBCHEM_IUPAC_NAME>
2-[4-[(Z)-1,2-diphenylbut-1-enyl]phenoxy]-N,N-dimethylethanamine

> <PUBCHEM_IUPAC_SYSTEMATIC_NAME>
2-[4-[(Z)-1,2-diphenylbut-1-enyl]phenoxy]-N,N-dimethyl-ethanamine

> <PUBCHEM_IUPAC_TRADITIONAL_NAME>
2-[4-[(Z)-1,2-diphenylbut-1-enyl]phenoxy]ethyl-dimethyl-amine

> <PUBCHEM_IUPAC_INCHI>
InChI=1S/C26H29NO/c1-4-25(21-11-7-5-8-12-21)26(22-13-9-6-10-14-22)23-15-17-24(18-16-23)28-20-19-27(2)3/h5-18H,4,19-20H2,1-3H3/b26-25-

> <PUBCHEM_IUPAC_INCHIKEY>
NKANXQFJJICGDU-QPLCGJKRSA-N

> <PUBCHEM_XLOGP3_AA>
7.1

> <PUBCHEM_EXACT_MASS>
371.224915

> <PUBCHEM_MOLECULAR_FORMULA>
C26H29NO

> <PUBCHEM_MOLECULAR_WEIGHT>
371.51456

> <PUBCHEM_OPENEYE_CAN_SMILES>
CCC(=C(C1=CC=CC=C1)C2=CC=C(C=C2)OCCN(C)C)C3=CC=CC=C3

> <PUBCHEM_OPENEYE_ISO_SMILES>
CC/C(=C(\C1=CC=CC=C1)/C2=CC=C(C=C2)OCCN(C)C)/C3=CC=CC=C3

> <PUBCHEM_CACTVS_TPSA>
12.5

> <PUBCHEM_MONOISOTOPIC_WEIGHT>
371.224915

> <PUBCHEM_TOTAL_CHARGE>
0

> <PUBCHEM_HEAVY_ATOM_COUNT>
28

> <PUBCHEM_ATOM_DEF_STEREO_COUNT>
0

> <PUBCHEM_ATOM_UDEF_STEREO_COUNT>
0

> <PUBCHEM_BOND_DEF_STEREO_COUNT>
1

> <PUBCHEM_BOND_UDEF_STEREO_COUNT>
0

> <PUBCHEM_ISOTOPIC_ATOM_COUNT>
0

> <PUBCHEM_COMPONENT_COUNT>
1

> <PUBCHEM_CACTVS_TAUTO_COUNT>
30

> <PUBCHEM_COORDINATE_TYPE>
1
5
255

> <PUBCHEM_BONDANNOTATIONS>
10  14  8
12  13  8
12  14  8
15  21  8
16  22  8
17  23  8
18  24  8
21  25  8
22  25  8
23  26  8
24  26  8
5  10  8
5  9  8
7  15  8
7  16  8
8  17  8
8  18  8
9  13  8

$$$$
3081361
  -OEChem-11121519512D

 54 57  0     0  0  0  0  0  0999 V2000
   12.3853   -4.0373    0.0000 Br  0  0  0  0  0  0  0  0  0  0  0  0
    8.9214   -3.9972    0.0000 F   0  0  0  0  0  0  0  0  0  0  0  0
    5.4641    1.0373    0.0000 O   0  0  0  0  0  0  0  0  0  0  0  0
    5.4641   -0.9627    0.0000 O   0  0  0  0  0  0  0  0  0  0  0  0
    2.8660    3.5373    0.0000 N   0  0  0  0  0  0  0  0  0  0  0  0
    8.9561    1.0719    0.0000 N   0  0  0  0  0  0  0  0  0  0  0  0
    8.9446   -1.9973    0.0000 N   0  0  0  0  0  0  0  0  0  0  0  0
    9.8622   -0.4836    0.0000 N   0  0  0  0  0  0  0  0  0  0  0  0
    4.5981    2.5373    0.0000 C   0  0  0  0  0  0  0  0  0  0  0  0
    4.5981    3.5373    0.0000 C   0  0  0  0  0  0  0  0  0  0  0  0
    3.7320    2.0373    0.0000 C   0  0  0  0  0  0  0  0  0  0  0  0
    2.8660    2.5373    0.0000 C   0  0  0  0  0  0  0  0  0  0  0  0
    3.7320    4.0373    0.0000 C   0  0  0  0  0  0  0  0  0  0  0  0
    5.4641    2.0373    0.0000 C   0  0  0  0  0  0  0  0  0  0  0  0
    2.0000    4.0373    0.0000 C   0  0  0  0  0  0  0  0  0  0  0  0
    6.3301    0.5373    0.0000 C   0  0  0  0  0  0  0  0  0  0  0  0
    6.3301   -0.4627    0.0000 C   0  0  0  0  0  0  0  0  0  0  0  0
    7.1962    1.0373    0.0000 C   0  0  0  0  0  0  0  0  0  0  0  0
    8.0622    0.5373    0.0000 C   0  0  0  0  0  0  0  0  0  0  0  0
    8.0622   -0.4627    0.0000 C   0  0  0  0  0  0  0  0  0  0  0  0
    7.1962   -0.9627    0.0000 C   0  0  0  0  0  0  0  0  0  0  0  0
    8.9561   -0.9974    0.0000 C   0  0  0  0  0  0  0  0  0  0  0  0
    9.8622    0.5581    0.0000 C   0  0  0  0  0  0  0  0  0  0  0  0
    5.4641   -1.9627    0.0000 C   0  0  0  0  0  0  0  0  0  0  0  0
    9.8047   -2.5073    0.0000 C   0  0  0  0  0  0  0  0  0  0  0  0
    9.7932   -3.5072    0.0000 C   0  0  0  0  0  0  0  0  0  0  0  0
   10.6765   -2.0174    0.0000 C   0  0  0  0  0  0  0  0  0  0  0  0
   10.6534   -4.0172    0.0000 C   0  0  0  0  0  0  0  0  0  0  0  0
   11.5367   -2.5273    0.0000 C   0  0  0  0  0  0  0  0  0  0  0  0
   11.5251   -3.5273    0.0000 C   0  0  0  0  0  0  0  0  0  0  0  0
    4.5981    1.9173    0.0000 H   0  0  0  0  0  0  0  0  0  0  0  0
    5.2087    3.4296    0.0000 H   0  0  0  0  0  0  0  0  0  0  0  0
    4.8101    4.1199    0.0000 H   0  0  0  0  0  0  0  0  0  0  0  0
    3.3335    1.5623    0.0000 H   0  0  0  0  0  0  0  0  0  0  0  0
    4.1306    1.5623    0.0000 H   0  0  0  0  0  0  0  0  0  0  0  0
    4.1306    4.5122    0.0000 H   0  0  0  0  0  0  0  0  0  0  0  0
    3.3335    4.5122    0.0000 H   0  0  0  0  0  0  0  0  0  0  0  0
    2.2554    2.6449    0.0000 H   0  0  0  0  0  0  0  0  0  0  0  0
    2.6540    1.9546    0.0000 H   0  0  0  0  0  0  0  0  0  0  0  0
    6.0747    1.9296    0.0000 H   0  0  0  0  0  0  0  0  0  0  0  0
    5.6762    2.6199    0.0000 H   0  0  0  0  0  0  0  0  0  0  0  0
    2.3100    4.5742    0.0000 H   0  0  0  0  0  0  0  0  0  0  0  0
    1.4631    4.3473    0.0000 H   0  0  0  0  0  0  0  0  0  0  0  0
    1.6900    3.5003    0.0000 H   0  0  0  0  0  0  0  0  0  0  0  0
    7.1962    1.6573    0.0000 H   0  0  0  0  0  0  0  0  0  0  0  0
    7.1962   -1.5827    0.0000 H   0  0  0  0  0  0  0  0  0  0  0  0
    8.4041   -2.3011    0.0000 H   0  0  0  0  0  0  0  0  0  0  0  0
   10.3979    0.8701    0.0000 H   0  0  0  0  0  0  0  0  0  0  0  0
    4.8441   -1.9627    0.0000 H   0  0  0  0  0  0  0  0  0  0  0  0
    5.4641   -2.5827    0.0000 H   0  0  0  0  0  0  0  0  0  0  0  0
    6.0841   -1.9627    0.0000 H   0  0  0  0  0  0  0  0  0  0  0  0
   10.6837   -1.3974    0.0000 H   0  0  0  0  0  0  0  0  0  0  0  0
   10.6462   -4.6372    0.0000 H   0  0  0  0  0  0  0  0  0  0  0  0
   12.0772   -2.2236    0.0000 H   0  0  0  0  0  0  0  0  0  0  0  0
  1 30  1  0  0  0  0
  2 26  1  0  0  0  0
  3 14  1  0  0  0  0
  3 16  1  0  0  0  0
  4 17  1  0  0  0  0
  4 24  1  0  0  0  0
  5 12  1  0  0  0  0
  5 13  1  0  0  0  0
  5 15  1  0  0  0  0
  6 19  1  0  0  0  0
  6 23  2  0  0  0  0
  7 22  1  0  0  0  0
  7 25  1  0  0  0  0
  7 47  1  0  0  0  0
  8 22  2  0  0  0  0
  8 23  1  0  0  0  0
  9 10  1  0  0  0  0
  9 11  1  0  0  0  0
  9 14  1  0  0  0  0
  9 31  1  0  0  0  0
 10 13  1  0  0  0  0
 10 32  1  0  0  0  0
 10 33  1  0  0  0  0
 11 12  1  0  0  0  0
 11 34  1  0  0  0  0
 11 35  1  0  0  0  0
 12 38  1  0  0  0  0
 12 39  1  0  0  0  0
 13 36  1  0  0  0  0
 13 37  1  0  0  0  0
 14 40  1  0  0  0  0
 14 41  1  0  0  0  0
 15 42  1  0  0  0  0
 15 43  1  0  0  0  0
 15 44  1  0  0  0  0
 16 17  2  0  0  0  0
 16 18  1  0  0  0  0
 17 21  1  0  0  0  0
 18 19  2  0  0  0  0
 18 45  1  0  0  0  0
 19 20  1  0  0  0  0
 20 21  2  0  0  0  0
 20 22  1  0  0  0  0
 21 46  1  0  0  0  0
 23 48  1  0  0  0  0
 24 49  1  0  0  0  0
 24 50  1  0  0  0  0
 24 51  1  0  0  0  0
 25 26  2  0  0  0  0
 25 27  1  0  0  0  0
 26 28  1  0  0  0  0
 27 29  2  0  0  0  0
 27 52  1  0  0  0  0
 28 30  2  0  0  0  0
 28 53  1  0  0  0  0
 29 30  1  0  0  0  0
 29 54  1  0  0  0  0
M  END
> <PUBCHEM_COMPOUND_CID>
3081361

> <PUBCHEM_COMPOUND_CANONICALIZED>
1

> <PUBCHEM_CACTVS_COMPLEXITY>
539

> <PUBCHEM_CACTVS_HBOND_ACCEPTOR>
7

> <PUBCHEM_CACTVS_HBOND_DONOR>
1

> <PUBCHEM_CACTVS_ROTATABLE_BOND>
6

> <PUBCHEM_CACTVS_SUBSKEYS>
AAADceB7sQAAEAAAAAAAAAAAAAAAAAAAAAA8eIEAAAAAAACx9AAAHwBQAAABrQzhng439vfIFACgAyZjZACCiCkxIqQJ2CA+7LiNLuLE+duGPCru0BvK6jew0BMOIEAhAgACQABAgEIEAASAAAAAAAAAAA==

> <PUBCHEM_IUPAC_OPENEYE_NAME>
N-(4-bromo-2-fluoro-phenyl)-6-methoxy-7-[(1-methyl-4-piperidyl)methoxy]quinazolin-4-amine

> <PUBCHEM_IUPAC_CAS_NAME>
N-(4-bromo-2-fluorophenyl)-6-methoxy-7-[(1-methyl-4-piperidinyl)methoxy]-4-quinazolinamine

> <PUBCHEM_IUPAC_NAME>
N-(4-bromo-2-fluorophenyl)-6-methoxy-7-[(1-methylpiperidin-4-yl)methoxy]quinazolin-4-amine

> <PUBCHEM_IUPAC_SYSTEMATIC_NAME>
N-(4-bromanyl-2-fluoranyl-phenyl)-6-methoxy-7-[(1-methylpiperidin-4-yl)methoxy]quinazolin-4-amine

> <PUBCHEM_IUPAC_TRADITIONAL_NAME>
(4-bromo-2-fluoro-phenyl)-[6-methoxy-7-[(1-methyl-4-piperidyl)methoxy]quinazolin-4-yl]amine

> <PUBCHEM_IUPAC_INCHI>
InChI=1S/C22H24BrFN4O2/c1-28-7-5-14(6-8-28)12-30-21-11-19-16(10-20(21)29-2)22(26-13-25-19)27-18-4-3-15(23)9-17(18)24/h3-4,9-11,13-14H,5-8,12H2,1-2H3,(H,25,26,27)

> <PUBCHEM_IUPAC_INCHIKEY>
UHTHHESEBZOYNR-UHFFFAOYSA-N

> <PUBCHEM_XLOGP3_AA>
4.9

> <PUBCHEM_EXACT_MASS>
474.106666

> <PUBCHEM_MOLECULAR_FORMULA>
C22H24BrFN4O2

> <PUBCHEM_MOLECULAR_WEIGHT>
475.353963

> <PUBCHEM_OPENEYE_CAN_SMILES>
CN1CCC(CC1)COC2=C(C=C3C(=C2)N=CN=C3NC4=C(C=C(C=C4)Br)F)OC

> <PUBCHEM_OPENEYE_ISO_SMILES>
CN1CCC(CC1)COC2=C(C=C3C(=C2)N=CN=C3NC4=C(C=C(C=C4)Br)F)OC

> <PUBCHEM_CACTVS_TPSA>
59.5

> <PUBCHEM_MONOISOTOPIC_WEIGHT>
474.106666

> <PUBCHEM_TOTAL_CHARGE>
0

> <PUBCHEM_HEAVY_ATOM_COUNT>
30

> <PUBCHEM_ATOM_DEF_STEREO_COUNT>
0

> <PUBCHEM_ATOM_UDEF_STEREO_COUNT>
0

> <PUBCHEM_BOND_DEF_STEREO_COUNT>
0

> <PUBCHEM_BOND_UDEF_STEREO_COUNT>
0

> <PUBCHEM_ISOTOPIC_ATOM_COUNT>
0

> <PUBCHEM_COMPONENT_COUNT>
1

> <PUBCHEM_CACTVS_TAUTO_COUNT>
6

> <PUBCHEM_COORDINATE_TYPE>
1
5
255

> <PUBCHEM_BONDANNOTATIONS>
16  17  8
16  18  8
17  21  8
18  19  8
19  20  8
20  21  8
20  22  8
25  26  8
25  27  8
26  28  8
27  29  8
28  30  8
29  30  8
6  19  8
6  23  8
8  22  8
8  23  8

$$$$
6918289
  -OEChem-11121519512D

160163  0     1  0  0  0  0  0999 V2000
    5.1177    2.1427    0.0000 O   0  0  0  0  0  0  0  0  0  0  0  0
    6.8500    3.1424    0.0000 O   0  0  0  0  0  0  0  0  0  0  0  0
    9.0811   -0.7237    0.0000 O   0  0  0  0  0  0  0  0  0  0  0  0
   13.5434   -4.2627    0.0000 O   0  0  0  0  0  0  0  0  0  0  0  0
   11.6916   -3.5947    0.0000 O   0  0  0  0  0  0  0  0  0  0  0  0
    5.1179    3.1427    0.0000 O   0  0  0  0  0  0  0  0  0  0  0  0
   10.2055   -2.2547    0.0000 O   0  0  0  0  0  0  0  0  0  0  0  0
    6.2526   -1.9739    0.0000 O   0  0  0  0  0  0  0  0  0  0  0  0
   13.0194   -1.8230    0.0000 O   0  0  0  0  0  0  0  0  0  0  0  0
   10.8113   -2.2627    0.0000 O   0  0  0  0  0  0  0  0  0  0  0  0
    5.1186    6.1427    0.0000 O   0  0  0  0  0  0  0  0  0  0  0  0
    4.4844    5.5089    0.0000 O   0  0  0  0  0  0  0  0  0  0  0  0
   11.6377   -4.2779    0.0000 O   0  0  0  0  0  0  0  0  0  0  0  0
    2.3100   -2.0556    0.0000 O   0  0  0  0  0  0  0  0  0  0  0  0
    4.9410   -2.3800    0.0000 O   0  0  0  0  0  0  0  0  0  0  0  0
    3.1511   -4.2627    0.0000 O   0  0  0  0  0  0  0  0  0  0  0  0
   11.8113   -1.2627    0.0000 N   0  0  0  0  0  0  0  0  0  0  0  0
    6.8492    0.1425    0.0000 C   0  0  1  0  0  0  0  0  0  0  0  0
    5.9834    0.6425    0.0000 C   0  0  0  0  0  0  0  0  0  0  0  0
    7.7154    0.6423    0.0000 C   0  0  0  0  0  0  0  0  0  0  0  0
    6.8491   -0.8575    0.0000 C   0  0  0  0  0  0  0  0  0  0  0  0
    5.9836    1.6425    0.0000 C   0  0  2  0  0  0  0  0  0  0  0  0
    6.8498    2.1424    0.0000 C   0  0  1  0  0  0  0  0  0  0  0  0
    7.7156    1.6422    0.0000 C   0  0  0  0  0  0  0  0  0  0  0  0
    7.3491   -1.7238    0.0000 C   0  0  2  0  0  0  0  0  0  0  0  0
    8.2151   -1.2237    0.0000 C   0  0  2  0  0  0  0  0  0  0  0  0
    7.3491   -2.7237    0.0000 C   0  0  0  0  0  0  0  0  0  0  0  0
    7.3491   -0.7237    0.0000 C   0  0  0  0  0  0  0  0  0  0  0  0
   10.9453   -0.7627    0.0000 C   0  0  2  0  0  0  0  0  0  0  0  0
    5.9840    3.6425    0.0000 C   0  0  0  0  0  0  0  0  0  0  0  0
   13.5512   -3.2447    0.0000 C   0  0  1  0  0  0  0  0  0  0  0  0
   12.6774   -3.7627    0.0000 C   0  0  2  0  0  0  0  0  0  0  0  0
    5.9842    4.6425    0.0000 C   0  0  0  0  0  0  0  0  0  0  0  0
   10.0793   -1.2627    0.0000 C   0  0  0  0  0  0  0  0  0  0  0  0
    4.2516    1.6429    0.0000 C   0  0  0  0  0  0  0  0  0  0  0  0
    6.3831   -0.9825    0.0000 C   0  0  0  0  0  0  0  0  0  0  0  0
   10.9453    0.2373    0.0000 C   0  0  0  0  0  0  0  0  0  0  0  0
   14.4329   -3.7492    0.0000 C   0  0  0  0  0  0  0  0  0  0  0  0
   13.5434   -5.2627    0.0000 C   0  0  1  0  0  0  0  0  0  0  0  0
   14.4289   -4.7650    0.0000 C   0  0  0  0  0  0  0  0  0  0  0  0
   11.8113    0.7373    0.0000 C   0  0  0  0  0  0  0  0  0  0  0  0
   12.6774   -0.7627    0.0000 C   0  0  0  0  0  0  0  0  0  0  0  0
   12.6774    0.2373    0.0000 C   0  0  0  0  0  0  0  0  0  0  0  0
    5.5171   -0.4825    0.0000 C   0  0  2  0  0  0  0  0  0  0  0  0
   12.6774   -2.7627    0.0000 C   0  0  0  0  0  0  0  0  0  0  0  0
   12.6774   -5.7627    0.0000 C   0  0  0  0  0  0  0  0  0  0  0  0
   11.8113   -2.2627    0.0000 C   0  0  0  0  0  0  0  0  0  0  0  0
   14.1880   -2.4737    0.0000 C   0  0  0  0  0  0  0  0  0  0  0  0
    5.9845    5.6425    0.0000 C   0  0  0  0  0  0  0  0  0  0  0  0
    4.9842    4.6428    0.0000 C   0  0  0  0  0  0  0  0  0  0  0  0
    6.9842    4.6423    0.0000 C   0  0  0  0  0  0  0  0  0  0  0  0
   11.8113   -5.2627    0.0000 C   0  0  1  0  0  0  0  0  0  0  0  0
    5.2583    0.4834    0.0000 C   0  0  0  0  0  0  0  0  0  0  0  0
    5.0171   -1.3485    0.0000 C   0  0  0  0  0  0  0  0  0  0  0  0
   10.9453   -5.7627    0.0000 C   0  0  0  0  0  0  0  0  0  0  0  0
    4.0171   -1.3485    0.0000 C   0  0  0  0  0  0  0  0  0  0  0  0
    3.3100   -2.0556    0.0000 C   0  0  2  0  0  0  0  0  0  0  0  0
   10.9453   -6.7627    0.0000 C   0  0  0  0  0  0  0  0  0  0  0  0
   10.0793   -5.2627    0.0000 C   0  0  0  0  0  0  0  0  0  0  0  0
    3.6344   -0.4246    0.0000 C   0  0  0  0  0  0  0  0  0  0  0  0
    4.0171   -2.7627    0.0000 C   0  0  2  0  0  0  0  0  0  0  0  0
   10.6980   -3.9359    0.0000 C   0  0  0  0  0  0  0  0  0  0  0  0
    4.0171   -3.7627    0.0000 C   0  0  0  0  0  0  0  0  0  0  0  0
    4.8831   -4.2627    0.0000 C   0  0  1  0  0  0  0  0  0  0  0  0
    9.2133   -5.7627    0.0000 C   0  0  0  0  0  0  0  0  0  0  0  0
    5.7492   -3.7627    0.0000 C   0  0  0  0  0  0  0  0  0  0  0  0
    6.6152   -4.2627    0.0000 C   0  0  1  0  0  0  0  0  0  0  0  0
    4.8831   -5.2627    0.0000 C   0  0  0  0  0  0  0  0  0  0  0  0
    8.3472   -5.2627    0.0000 C   0  0  0  0  0  0  0  0  0  0  0  0
    6.6152   -5.2627    0.0000 C   0  0  0  0  0  0  0  0  0  0  0  0
    5.7343   -2.9888    0.0000 C   0  0  0  0  0  0  0  0  0  0  0  0
    7.4812   -5.7627    0.0000 C   0  0  0  0  0  0  0  0  0  0  0  0
    7.4812   -3.7627    0.0000 C   0  0  0  0  0  0  0  0  0  0  0  0
    6.3122   -0.1674    0.0000 H   0  0  0  0  0  0  0  0  0  0  0  0
    5.3728    0.7503    0.0000 H   0  0  0  0  0  0  0  0  0  0  0  0
    5.7712    0.0600    0.0000 H   0  0  0  0  0  0  0  0  0  0  0  0
    7.9273    0.0596    0.0000 H   0  0  0  0  0  0  0  0  0  0  0  0
    8.3260    0.7498    0.0000 H   0  0  0  0  0  0  0  0  0  0  0  0
    6.2665   -0.6454    0.0000 H   0  0  0  0  0  0  0  0  0  0  0  0
    7.4480   -0.6971    0.0000 H   0  0  0  0  0  0  0  0  0  0  0  0
    5.4466    1.3326    0.0000 H   0  0  0  0  0  0  0  0  0  0  0  0
    7.3868    2.4522    0.0000 H   0  0  0  0  0  0  0  0  0  0  0  0
    8.3261    1.5344    0.0000 H   0  0  0  0  0  0  0  0  0  0  0  0
    7.9278    2.2248    0.0000 H   0  0  0  0  0  0  0  0  0  0  0  0
    6.7502   -1.8842    0.0000 H   0  0  0  0  0  0  0  0  0  0  0  0
    8.6401   -1.9598    0.0000 H   0  0  0  0  0  0  0  0  0  0  0  0
    6.7291   -2.7237    0.0000 H   0  0  0  0  0  0  0  0  0  0  0  0
    7.3492   -3.3437    0.0000 H   0  0  0  0  0  0  0  0  0  0  0  0
    7.9691   -2.7237    0.0000 H   0  0  0  0  0  0  0  0  0  0  0  0
    7.7875   -0.2853    0.0000 H   0  0  0  0  0  0  0  0  0  0  0  0
    7.0391   -0.1867    0.0000 H   0  0  0  0  0  0  0  0  0  0  0  0
   10.2092   -0.3377    0.0000 H   0  0  0  0  0  0  0  0  0  0  0  0
   13.1481   -2.7736    0.0000 H   0  0  0  0  0  0  0  0  0  0  0  0
    3.9417    2.1799    0.0000 H   0  0  0  0  0  0  0  0  0  0  0  0
    3.7146    1.3330    0.0000 H   0  0  0  0  0  0  0  0  0  0  0  0
    4.5614    1.1059    0.0000 H   0  0  0  0  0  0  0  0  0  0  0  0
   10.7333    0.8199    0.0000 H   0  0  0  0  0  0  0  0  0  0  0  0
   10.3347    0.1296    0.0000 H   0  0  0  0  0  0  0  0  0  0  0  0
   15.0433   -3.8576    0.0000 H   0  0  0  0  0  0  0  0  0  0  0  0
   14.6442   -3.1663    0.0000 H   0  0  0  0  0  0  0  0  0  0  0  0
   13.9641   -6.0013    0.0000 H   0  0  0  0  0  0  0  0  0  0  0  0
   14.6357   -5.3495    0.0000 H   0  0  0  0  0  0  0  0  0  0  0  0
   15.0402   -4.6613    0.0000 H   0  0  0  0  0  0  0  0  0  0  0  0
   12.8894   -1.3453    0.0000 H   0  0  0  0  0  0  0  0  0  0  0  0
   13.2879   -0.6551    0.0000 H   0  0  0  0  0  0  0  0  0  0  0  0
   12.2099    1.2122    0.0000 H   0  0  0  0  0  0  0  0  0  0  0  0
   11.4128    1.2122    0.0000 H   0  0  0  0  0  0  0  0  0  0  0  0
   13.2879    0.1296    0.0000 H   0  0  0  0  0  0  0  0  0  0  0  0
   12.8894    0.8199    0.0000 H   0  0  0  0  0  0  0  0  0  0  0  0
    6.0090   -0.1050    0.0000 H   0  0  0  0  0  0  0  0  0  0  0  0
   12.2788   -6.2377    0.0000 H   0  0  0  0  0  0  0  0  0  0  0  0
   13.0759   -6.2377    0.0000 H   0  0  0  0  0  0  0  0  0  0  0  0
   14.6660   -2.8685    0.0000 H   0  0  0  0  0  0  0  0  0  0  0  0
   14.5829   -1.9957    0.0000 H   0  0  0  0  0  0  0  0  0  0  0  0
   13.7100   -2.0788    0.0000 H   0  0  0  0  0  0  0  0  0  0  0  0
    6.5950    5.5347    0.0000 H   0  0  0  0  0  0  0  0  0  0  0  0
    6.1966    6.2251    0.0000 H   0  0  0  0  0  0  0  0  0  0  0  0
    4.4016    4.4308    0.0000 H   0  0  0  0  0  0  0  0  0  0  0  0
    5.0918    4.0321    0.0000 H   0  0  0  0  0  0  0  0  0  0  0  0
    6.9841    4.0223    0.0000 H   0  0  0  0  0  0  0  0  0  0  0  0
    7.6042    4.6422    0.0000 H   0  0  0  0  0  0  0  0  0  0  0  0
    6.9844    5.2623    0.0000 H   0  0  0  0  0  0  0  0  0  0  0  0
   12.3192   -4.9071    0.0000 H   0  0  0  0  0  0  0  0  0  0  0  0
   11.2144   -3.1990    0.0000 H   0  0  0  0  0  0  0  0  0  0  0  0
    5.8572    0.6439    0.0000 H   0  0  0  0  0  0  0  0  0  0  0  0
    5.0978    1.0823    0.0000 H   0  0  0  0  0  0  0  0  0  0  0  0
    4.6594    0.3230    0.0000 H   0  0  0  0  0  0  0  0  0  0  0  0
    5.3271   -1.8854    0.0000 H   0  0  0  0  0  0  0  0  0  0  0  0
    5.1187    6.7627    0.0000 H   0  0  0  0  0  0  0  0  0  0  0  0
    3.8644    5.5090    0.0000 H   0  0  0  0  0  0  0  0  0  0  0  0
    3.0727   -1.4828    0.0000 H   0  0  0  0  0  0  0  0  0  0  0  0
   10.3253   -6.7627    0.0000 H   0  0  0  0  0  0  0  0  0  0  0  0
   10.9453   -7.3827    0.0000 H   0  0  0  0  0  0  0  0  0  0  0  0
   11.5653   -6.7627    0.0000 H   0  0  0  0  0  0  0  0  0  0  0  0
   10.0793   -4.6427    0.0000 H   0  0  0  0  0  0  0  0  0  0  0  0
    4.5326   -3.1072    0.0000 H   0  0  0  0  0  0  0  0  0  0  0  0
    4.2072   -0.1874    0.0000 H   0  0  0  0  0  0  0  0  0  0  0  0
    3.3972    0.1482    0.0000 H   0  0  0  0  0  0  0  0  0  0  0  0
    3.0616   -0.6619    0.0000 H   0  0  0  0  0  0  0  0  0  0  0  0
   10.9100   -3.3533    0.0000 H   0  0  0  0  0  0  0  0  0  0  0  0
   10.1154   -3.7238    0.0000 H   0  0  0  0  0  0  0  0  0  0  0  0
   10.4859   -4.5185    0.0000 H   0  0  0  0  0  0  0  0  0  0  0  0
    4.3462   -4.5727    0.0000 H   0  0  0  0  0  0  0  0  0  0  0  0
    9.2133   -6.3827    0.0000 H   0  0  0  0  0  0  0  0  0  0  0  0
    2.0000   -2.5926    0.0000 H   0  0  0  0  0  0  0  0  0  0  0  0
    6.1477   -3.2878    0.0000 H   0  0  0  0  0  0  0  0  0  0  0  0
    5.3506   -3.2878    0.0000 H   0  0  0  0  0  0  0  0  0  0  0  0
    6.6152   -3.6427    0.0000 H   0  0  0  0  0  0  0  0  0  0  0  0
    4.2631   -5.2627    0.0000 H   0  0  0  0  0  0  0  0  0  0  0  0
    4.8831   -5.8827    0.0000 H   0  0  0  0  0  0  0  0  0  0  0  0
    5.5031   -5.2627    0.0000 H   0  0  0  0  0  0  0  0  0  0  0  0
    8.3472   -4.6427    0.0000 H   0  0  0  0  0  0  0  0  0  0  0  0
    6.0782   -5.5727    0.0000 H   0  0  0  0  0  0  0  0  0  0  0  0
    5.3569   -3.4807    0.0000 H   0  0  0  0  0  0  0  0  0  0  0  0
    6.2262   -3.3662    0.0000 H   0  0  0  0  0  0  0  0  0  0  0  0
    6.1118   -2.4969    0.0000 H   0  0  0  0  0  0  0  0  0  0  0  0
    7.7912   -4.2997    0.0000 H   0  0  0  0  0  0  0  0  0  0  0  0
    8.0181   -3.4527    0.0000 H   0  0  0  0  0  0  0  0  0  0  0  0
    7.1712   -3.2258    0.0000 H   0  0  0  0  0  0  0  0  0  0  0  0
    7.4812   -6.3827    0.0000 H   0  0  0  0  0  0  0  0  0  0  0  0
 22  1  1  1  0  0  0
  1 35  1  0  0  0  0
 23  2  1  6  0  0  0
  2 30  1  0  0  0  0
  3 26  1  0  0  0  0
  3 34  1  0  0  0  0
  4 32  1  0  0  0  0
  4 39  1  0  0  0  0
 32  5  1  6  0  0  0
  5124  1  0  0  0  0
  6 30  2  0  0  0  0
  7 34  2  0  0  0  0
  8 36  2  0  0  0  0
  9 45  2  0  0  0  0
 10 47  2  0  0  0  0
 11 49  1  0  0  0  0
 11129  1  0  0  0  0
 12 50  1  0  0  0  0
 12130  1  0  0  0  0
 52 13  1  1  0  0  0
 13 62  1  0  0  0  0
 57 14  1  6  0  0  0
 14145  1  0  0  0  0
 61 15  1  1  0  0  0
 15 71  1  0  0  0  0
 16 63  2  0  0  0  0
 17 29  1  0  0  0  0
 17 42  1  0  0  0  0
 17 47  1  0  0  0  0
 18 19  1  0  0  0  0
 18 20  1  0  0  0  0
 18 21  1  1  0  0  0
 18 74  1  0  0  0  0
 19 22  1  0  0  0  0
 19 75  1  0  0  0  0
 19 76  1  0  0  0  0
 20 24  1  0  0  0  0
 20 77  1  0  0  0  0
 20 78  1  0  0  0  0
 21 25  1  0  0  0  0
 21 79  1  0  0  0  0
 21 80  1  0  0  0  0
 22 23  1  0  0  0  0
 22 81  1  0  0  0  0
 23 24  1  0  0  0  0
 23 82  1  0  0  0  0
 24 83  1  0  0  0  0
 24 84  1  0  0  0  0
 25 26  1  0  0  0  0
 25 27  1  6  0  0  0
 25 85  1  0  0  0  0
 26 28  1  0  0  0  0
 26 86  1  1  0  0  0
 27 87  1  0  0  0  0
 27 88  1  0  0  0  0
 27 89  1  0  0  0  0
 28 36  1  0  0  0  0
 28 90  1  0  0  0  0
 28 91  1  0  0  0  0
 29 34  1  0  0  0  0
 29 37  1  0  0  0  0
 29 92  1  1  0  0  0
 30 33  1  0  0  0  0
 31 32  1  0  0  0  0
 31 38  1  0  0  0  0
 31 48  1  6  0  0  0
 31 93  1  0  0  0  0
 32 45  1  0  0  0  0
 33 49  1  0  0  0  0
 33 50  1  0  0  0  0
 33 51  1  0  0  0  0
 35 94  1  0  0  0  0
 35 95  1  0  0  0  0
 35 96  1  0  0  0  0
 36 44  1  0  0  0  0
 37 41  1  0  0  0  0
 37 97  1  0  0  0  0
 37 98  1  0  0  0  0
 38 40  1  0  0  0  0
 38 99  1  0  0  0  0
 38100  1  0  0  0  0
 39 40  1  0  0  0  0
 39 46  1  0  0  0  0
 39101  1  6  0  0  0
 40102  1  0  0  0  0
 40103  1  0  0  0  0
 41 43  1  0  0  0  0
 41106  1  0  0  0  0
 41107  1  0  0  0  0
 42 43  1  0  0  0  0
 42104  1  0  0  0  0
 42105  1  0  0  0  0
 43108  1  0  0  0  0
 43109  1  0  0  0  0
 44 53  1  1  0  0  0
 44 54  1  0  0  0  0
 44110  1  0  0  0  0
 45 47  1  0  0  0  0
 46 52  1  0  0  0  0
 46111  1  0  0  0  0
 46112  1  0  0  0  0
 48113  1  0  0  0  0
 48114  1  0  0  0  0
 48115  1  0  0  0  0
 49116  1  0  0  0  0
 49117  1  0  0  0  0
 50118  1  0  0  0  0
 50119  1  0  0  0  0
 51120  1  0  0  0  0
 51121  1  0  0  0  0
 51122  1  0  0  0  0
 52 55  1  0  0  0  0
 52123  1  0  0  0  0
 53125  1  0  0  0  0
 53126  1  0  0  0  0
 53127  1  0  0  0  0
 54 56  2  0  0  0  0
 54128  1  0  0  0  0
 55 58  1  0  0  0  0
 55 59  2  0  0  0  0
 56 57  1  0  0  0  0
 56 60  1  0  0  0  0
 57 61  1  0  0  0  0
 57131  1  0  0  0  0
 58132  1  0  0  0  0
 58133  1  0  0  0  0
 58134  1  0  0  0  0
 59 65  1  0  0  0  0
 59135  1  0  0  0  0
 60137  1  0  0  0  0
 60138  1  0  0  0  0
 60139  1  0  0  0  0
 61 63  1  0  0  0  0
 61136  1  0  0  0  0
 62140  1  0  0  0  0
 62141  1  0  0  0  0
 62142  1  0  0  0  0
 63 64  1  0  0  0  0
 64 66  1  0  0  0  0
 64 68  1  1  0  0  0
 64143  1  0  0  0  0
 65 69  2  0  0  0  0
 65144  1  0  0  0  0
 66 67  1  0  0  0  0
 66146  1  0  0  0  0
 66147  1  0  0  0  0
 67 70  1  0  0  0  0
 67 73  1  6  0  0  0
 67148  1  0  0  0  0
 68149  1  0  0  0  0
 68150  1  0  0  0  0
 68151  1  0  0  0  0
 69 72  1  0  0  0  0
 69152  1  0  0  0  0
 70 72  2  0  0  0  0
 70153  1  0  0  0  0
 71154  1  0  0  0  0
 71155  1  0  0  0  0
 71156  1  0  0  0  0
 72160  1  0  0  0  0
 73157  1  0  0  0  0
 73158  1  0  0  0  0
 73159  1  0  0  0  0
M  END
> <PUBCHEM_COMPOUND_CID>
6918289

> <PUBCHEM_COMPOUND_CANONICALIZED>
1

> <PUBCHEM_CACTVS_COMPLEXITY>
2010

> <PUBCHEM_CACTVS_HBOND_ACCEPTOR>
16

> <PUBCHEM_CACTVS_HBOND_DONOR>
4

> <PUBCHEM_CACTVS_ROTATABLE_BOND>
11

> <PUBCHEM_CACTVS_SUBSKEYS>
AAADcfB+PgAAAAAAAAAAAAAAAAAAAAAAAAA8SIAAAAAAAAAAAAAAHgAACAAADzzhgAYCCAMABgCIAqHSGAIAAAAgAAAICAHIAAgbFBYAoSQHUAAH5gCfsAOY6PSOAAAAAAAAAABAAAIAAACAAAAAAAAAAA==

> <PUBCHEM_IUPAC_INCHI>
InChI=1S/C56H87NO16/c1-33-17-13-12-14-18-34(2)45(68-9)29-41-22-20-39(7)56(67,73-41)51(63)52(64)57-24-16-15-19-42(57)53(65)71-46(30-43(60)35(3)26-38(6)49(62)50(70-11)48(61)37(5)25-33)36(4)27-40-21-23-44(47(28-40)69-10)72-54(66)55(8,31-58)32-59/h12-14,17-18,26,33,35-37,39-42,44-47,49-50,58-59,62,67H,15-16,19-25,27-32H2,1-11H3/b14-12+,17-13+,34-18+,38-26+/t33-,35-,36-,37-,39-,40+,41+,42+,44-,45+,46+,47-,49-,50+,56-/m1/s1

> <PUBCHEM_IUPAC_INCHIKEY>
CBPNZQVSJQDFBE-FUXHJELOSA-N

> <PUBCHEM_XLOGP3_AA>
5.6

> <PUBCHEM_EXACT_MASS>
1029.602486

> <PUBCHEM_MOLECULAR_FORMULA>
C56H87NO16

> <PUBCHEM_MOLECULAR_WEIGHT>
1030.28708

> <PUBCHEM_OPENEYE_CAN_SMILES>
CC1CCC2CC(C(=CC=CC=CC(CC(C(=O)C(C(C(=CC(C(=O)CC(OC(=O)C3CCCCN3C(=O)C(=O)C1(O2)O)C(C)CC4CCC(C(C4)OC)OC(=O)C(C)(CO)CO)C)C)O)OC)C)C)C)OC

> <PUBCHEM_OPENEYE_ISO_SMILES>
C[C@@H]1CC[C@H]2C[C@@H](/C(=C/C=C/C=C/[C@H](C[C@H](C(=O)[C@@H]([C@@H](/C(=C/[C@H](C(=O)C[C@H](OC(=O)[C@@H]3CCCCN3C(=O)C(=O)[C@@]1(O2)O)[C@H](C)C[C@@H]4CC[C@H]([C@@H](C4)OC)OC(=O)C(C)(CO)CO)C)/C)O)OC)C)C)/C)OC

> <PUBCHEM_CACTVS_TPSA>
242

> <PUBCHEM_MONOISOTOPIC_WEIGHT>
1029.602486

> <PUBCHEM_TOTAL_CHARGE>
0

> <PUBCHEM_HEAVY_ATOM_COUNT>
73

> <PUBCHEM_ATOM_DEF_STEREO_COUNT>
15

> <PUBCHEM_ATOM_UDEF_STEREO_COUNT>
0

> <PUBCHEM_BOND_DEF_STEREO_COUNT>
4

> <PUBCHEM_BOND_UDEF_STEREO_COUNT>
0

> <PUBCHEM_ISOTOPIC_ATOM_COUNT>
0

> <PUBCHEM_COMPONENT_COUNT>
1

> <PUBCHEM_CACTVS_TAUTO_COUNT>
15

> <PUBCHEM_COORDINATE_TYPE>
1
5
255

> <PUBCHEM_BONDANNOTATIONS>
22  1  5
52  13  5
57  14  6
61  15  5
18  21  5
23  2  6
25  27  6
26  86  5
29  92  5
31  48  6
39  101  6
44  53  5
32  5  6
64  68  5
67  73  6

$$$$
9933475
  -OEChem-11121519512D

 60 64  0     0  0  0  0  0  0999 V2000
    8.7720   -3.6282    0.0000 F   0  0  0  0  0  0  0  0  0  0  0  0
    5.3147    1.4062    0.0000 O   0  0  0  0  0  0  0  0  0  0  0  0
    8.7952   -1.6284    0.0000 O   0  0  0  0  0  0  0  0  0  0  0  0
    5.3147   -0.5938    0.0000 O   0  0  0  0  0  0  0  0  0  0  0  0
    3.5827    4.4062    0.0000 N   0  0  0  0  0  0  0  0  0  0  0  0
   12.1050   -3.8339    0.0000 N   0  0  0  0  0  0  0  0  0  0  0  0
    8.8067    1.4409    0.0000 N   0  0  0  0  0  0  0  0  0  0  0  0
    9.7128   -0.1146    0.0000 N   0  0  0  0  0  0  0  0  0  0  0  0
    3.4782    5.4008    0.0000 C   0  0  0  0  0  0  0  0  0  0  0  0
    2.6691    3.9995    0.0000 C   0  0  0  0  0  0  0  0  0  0  0  0
    2.5000    5.6087    0.0000 C   0  0  0  0  0  0  0  0  0  0  0  0
    2.0000    4.7426    0.0000 C   0  0  0  0  0  0  0  0  0  0  0  0
    4.4487    3.9062    0.0000 C   0  0  0  0  0  0  0  0  0  0  0  0
    4.4487    2.9062    0.0000 C   0  0  0  0  0  0  0  0  0  0  0  0
    5.3147    2.4062    0.0000 C   0  0  0  0  0  0  0  0  0  0  0  0
    6.1808    0.9062    0.0000 C   0  0  0  0  0  0  0  0  0  0  0  0
    6.1808   -0.0938    0.0000 C   0  0  0  0  0  0  0  0  0  0  0  0
    7.0468    1.4062    0.0000 C   0  0  0  0  0  0  0  0  0  0  0  0
    7.9128   -0.0938    0.0000 C   0  0  0  0  0  0  0  0  0  0  0  0
    7.9128    0.9062    0.0000 C   0  0  0  0  0  0  0  0  0  0  0  0
   10.5040   -3.6483    0.0000 C   0  0  0  0  0  0  0  0  0  0  0  0
   11.3757   -3.1583    0.0000 C   0  0  0  0  0  0  0  0  0  0  0  0
    7.0468   -0.5938    0.0000 C   0  0  0  0  0  0  0  0  0  0  0  0
   11.6894   -4.7369    0.0000 C   0  0  0  0  0  0  0  0  0  0  0  0
   10.7019   -4.6224    0.0000 C   0  0  0  0  0  0  0  0  0  0  0  0
    8.8067   -0.6284    0.0000 C   0  0  0  0  0  0  0  0  0  0  0  0
    9.6438   -3.1383    0.0000 C   0  0  0  0  0  0  0  0  0  0  0  0
    9.6554   -2.1384    0.0000 C   0  0  0  0  0  0  0  0  0  0  0  0
   11.3873   -2.1584    0.0000 C   0  0  0  0  0  0  0  0  0  0  0  0
   10.5271   -1.6484    0.0000 C   0  0  0  0  0  0  0  0  0  0  0  0
   12.1794   -5.6087    0.0000 C   0  0  0  0  0  0  0  0  0  0  0  0
    9.7128    0.9270    0.0000 C   0  0  0  0  0  0  0  0  0  0  0  0
    5.3147   -1.5938    0.0000 C   0  0  0  0  0  0  0  0  0  0  0  0
    2.1675    3.6351    0.0000 H   0  0  0  0  0  0  0  0  0  0  0  0
    2.9791    3.4626    0.0000 H   0  0  0  0  0  0  0  0  0  0  0  0
    4.0982    5.4008    0.0000 H   0  0  0  0  0  0  0  0  0  0  0  0
    3.5430    6.0174    0.0000 H   0  0  0  0  0  0  0  0  0  0  0  0
    1.4984    5.1071    0.0000 H   0  0  0  0  0  0  0  0  0  0  0  0
    1.5851    4.2819    0.0000 H   0  0  0  0  0  0  0  0  0  0  0  0
    2.6916    6.1983    0.0000 H   0  0  0  0  0  0  0  0  0  0  0  0
    1.9336    5.8608    0.0000 H   0  0  0  0  0  0  0  0  0  0  0  0
    5.0593    3.7986    0.0000 H   0  0  0  0  0  0  0  0  0  0  0  0
    4.6608    4.4888    0.0000 H   0  0  0  0  0  0  0  0  0  0  0  0
    3.8381    3.0139    0.0000 H   0  0  0  0  0  0  0  0  0  0  0  0
    4.2366    2.3236    0.0000 H   0  0  0  0  0  0  0  0  0  0  0  0
    5.9253    2.2986    0.0000 H   0  0  0  0  0  0  0  0  0  0  0  0
    5.5268    2.9888    0.0000 H   0  0  0  0  0  0  0  0  0  0  0  0
    7.0468    2.0262    0.0000 H   0  0  0  0  0  0  0  0  0  0  0  0
    7.0468   -1.2138    0.0000 H   0  0  0  0  0  0  0  0  0  0  0  0
   10.2826   -5.0791    0.0000 H   0  0  0  0  0  0  0  0  0  0  0  0
   12.7131   -3.7130    0.0000 H   0  0  0  0  0  0  0  0  0  0  0  0
   11.9278   -1.8546    0.0000 H   0  0  0  0  0  0  0  0  0  0  0  0
   10.5343   -1.0284    0.0000 H   0  0  0  0  0  0  0  0  0  0  0  0
   11.6389   -5.9124    0.0000 H   0  0  0  0  0  0  0  0  0  0  0  0
   12.4831   -6.1492    0.0000 H   0  0  0  0  0  0  0  0  0  0  0  0
   12.7198   -5.3049    0.0000 H   0  0  0  0  0  0  0  0  0  0  0  0
   10.2485    1.2391    0.0000 H   0  0  0  0  0  0  0  0  0  0  0  0
    4.6947   -1.5938    0.0000 H   0  0  0  0  0  0  0  0  0  0  0  0
    5.3147   -2.2138    0.0000 H   0  0  0  0  0  0  0  0  0  0  0  0
    5.9347   -1.5938    0.0000 H   0  0  0  0  0  0  0  0  0  0  0  0
  1 27  1  0  0  0  0
  2 15  1  0  0  0  0
  2 16  1  0  0  0  0
  3 26  1  0  0  0  0
  3 28  1  0  0  0  0
  4 17  1  0  0  0  0
  4 33  1  0  0  0  0
  5  9  1  0  0  0  0
  5 10  1  0  0  0  0
  5 13  1  0  0  0  0
  6 22  1  0  0  0  0
  6 24  1  0  0  0  0
  6 51  1  0  0  0  0
  7 20  1  0  0  0  0
  7 32  2  0  0  0  0
  8 26  2  0  0  0  0
  8 32  1  0  0  0  0
  9 11  1  0  0  0  0
  9 36  1  0  0  0  0
  9 37  1  0  0  0  0
 10 12  1  0  0  0  0
 10 34  1  0  0  0  0
 10 35  1  0  0  0  0
 11 12  1  0  0  0  0
 11 40  1  0  0  0  0
 11 41  1  0  0  0  0
 12 38  1  0  0  0  0
 12 39  1  0  0  0  0
 13 14  1  0  0  0  0
 13 42  1  0  0  0  0
 13 43  1  0  0  0  0
 14 15  1  0  0  0  0
 14 44  1  0  0  0  0
 14 45  1  0  0  0  0
 15 46  1  0  0  0  0
 15 47  1  0  0  0  0
 16 17  2  0  0  0  0
 16 18  1  0  0  0  0
 17 23  1  0  0  0  0
 18 20  2  0  0  0  0
 18 48  1  0  0  0  0
 19 20  1  0  0  0  0
 19 23  2  0  0  0  0
 19 26  1  0  0  0  0
 21 22  2  0  0  0  0
 21 25  1  0  0  0  0
 21 27  1  0  0  0  0
 22 29  1  0  0  0  0
 23 49  1  0  0  0  0
 24 25  2  0  0  0  0
 24 31  1  0  0  0  0
 25 50  1  0  0  0  0
 27 28  2  0  0  0  0
 28 30  1  0  0  0  0
 29 30  2  0  0  0  0
 29 52  1  0  0  0  0
 30 53  1  0  0  0  0
 31 54  1  0  0  0  0
 31 55  1  0  0  0  0
 31 56  1  0  0  0  0
 32 57  1  0  0  0  0
 33 58  1  0  0  0  0
 33 59  1  0  0  0  0
 33 60  1  0  0  0  0
M  END
> <PUBCHEM_COMPOUND_CID>
9933475

> <PUBCHEM_COMPOUND_CANONICALIZED>
1

> <PUBCHEM_CACTVS_COMPLEXITY>
625

> <PUBCHEM_CACTVS_HBOND_ACCEPTOR>
7

> <PUBCHEM_CACTVS_HBOND_DONOR>
1

> <PUBCHEM_CACTVS_ROTATABLE_BOND>
8

> <PUBCHEM_CACTVS_SUBSKEYS>
AAADceB7sQAAAAAAAAAAAAAAAAAAAWLAAAA8YIAAAAAAAFix/gAAHwAQAAAADAzhng431vfJlACgAyRjZACCiCkxIqAJ2SA+7JiNLuLE+duOPCru0BvK6Cfw8L8OIEABAgACQABAgAIEAASAAAAAAAAAAA==

> <PUBCHEM_IUPAC_OPENEYE_NAME>
4-[(4-fluoro-2-methyl-1H-indol-5-yl)oxy]-6-methoxy-7-(3-pyrrolidin-1-ylpropoxy)quinazoline

> <PUBCHEM_IUPAC_CAS_NAME>
4-[(4-fluoro-2-methyl-1H-indol-5-yl)oxy]-6-methoxy-7-[3-(1-pyrrolidinyl)propoxy]quinazoline

> <PUBCHEM_IUPAC_NAME>
4-[(4-fluoro-2-methyl-1H-indol-5-yl)oxy]-6-methoxy-7-(3-pyrrolidin-1-ylpropoxy)quinazoline

> <PUBCHEM_IUPAC_SYSTEMATIC_NAME>
4-[(4-fluoranyl-2-methyl-1H-indol-5-yl)oxy]-6-methoxy-7-(3-pyrrolidin-1-ylpropoxy)quinazoline

> <PUBCHEM_IUPAC_TRADITIONAL_NAME>
4-[(4-fluoro-2-methyl-1H-indol-5-yl)oxy]-6-methoxy-7-(3-pyrrolidinopropoxy)quinazoline

> <PUBCHEM_IUPAC_INCHI>
InChI=1S/C25H27FN4O3/c1-16-12-17-19(29-16)6-7-21(24(17)26)33-25-18-13-22(31-2)23(14-20(18)27-15-28-25)32-11-5-10-30-8-3-4-9-30/h6-7,12-15,29H,3-5,8-11H2,1-2H3

> <PUBCHEM_IUPAC_INCHIKEY>
XXJWYDDUDKYVKI-UHFFFAOYSA-N

> <PUBCHEM_XLOGP3_AA>
4.9

> <PUBCHEM_EXACT_MASS>
450.206719

> <PUBCHEM_MOLECULAR_FORMULA>
C25H27FN4O3

> <PUBCHEM_MOLECULAR_WEIGHT>
450.505283

> <PUBCHEM_OPENEYE_CAN_SMILES>
CC1=CC2=C(N1)C=CC(=C2F)OC3=NC=NC4=CC(=C(C=C43)OC)OCCCN5CCCC5

> <PUBCHEM_OPENEYE_ISO_SMILES>
CC1=CC2=C(N1)C=CC(=C2F)OC3=NC=NC4=CC(=C(C=C43)OC)OCCCN5CCCC5

> <PUBCHEM_CACTVS_TPSA>
72.5

> <PUBCHEM_MONOISOTOPIC_WEIGHT>
450.206719

> <PUBCHEM_TOTAL_CHARGE>
0

> <PUBCHEM_HEAVY_ATOM_COUNT>
33

> <PUBCHEM_ATOM_DEF_STEREO_COUNT>
0

> <PUBCHEM_ATOM_UDEF_STEREO_COUNT>
0

> <PUBCHEM_BOND_DEF_STEREO_COUNT>
0

> <PUBCHEM_BOND_UDEF_STEREO_COUNT>
0

> <PUBCHEM_ISOTOPIC_ATOM_COUNT>
0

> <PUBCHEM_COMPONENT_COUNT>
1

> <PUBCHEM_CACTVS_TAUTO_COUNT>
1

> <PUBCHEM_COORDINATE_TYPE>
1
5
255

> <PUBCHEM_BONDANNOTATIONS>
16  17  8
16  18  8
17  23  8
18  20  8
19  20  8
19  23  8
19  26  8
21  22  8
21  25  8
21  27  8
22  29  8
24  25  8
27  28  8
28  30  8
29  30  8
6  22  8
6  24  8
7  20  8
7  32  8
8  26  8
8  32  8

$$$$
10127622
  -OEChem-11121519512D

 42 44  0     0  0  0  0  0  0999 V2000
    4.2690    5.1550    0.0000 Br  0  0  0  0  0  0  0  0  0  0  0  0
    2.5369    2.1550    0.0000 Cl  0  0  0  0  0  0  0  0  0  0  0  0
    6.0010    2.1550    0.0000 F   0  0  0  0  0  0  0  0  0  0  0  0
    3.4030   -2.3450    0.0000 O   0  0  0  0  0  0  0  0  0  0  0  0
    3.4030   -0.3450    0.0000 O   0  0  0  0  0  0  0  0  0  0  0  0
    2.5369   -4.8450    0.0000 O   0  0  0  0  0  0  0  0  0  0  0  0
    7.8133   -0.6497    0.0000 N   0  0  0  0  0  0  0  0  0  0  0  0
    4.2690    1.1550    0.0000 N   0  0  0  0  0  0  0  0  0  0  0  0
    7.8133    0.9597    0.0000 N   0  0  0  0  0  0  0  0  0  0  0  0
    4.2690   -1.8450    0.0000 N   0  0  0  0  0  0  0  0  0  0  0  0
    6.8671   -0.3450    0.0000 C   0  0  0  0  0  0  0  0  0  0  0  0
    6.8671    0.6550    0.0000 C   0  0  0  0  0  0  0  0  0  0  0  0
    5.1350    0.6550    0.0000 C   0  0  0  0  0  0  0  0  0  0  0  0
    5.1350   -0.3450    0.0000 C   0  0  0  0  0  0  0  0  0  0  0  0
    6.0010   -0.8450    0.0000 C   0  0  0  0  0  0  0  0  0  0  0  0
    6.0010    1.1550    0.0000 C   0  0  0  0  0  0  0  0  0  0  0  0
    8.3969    0.1550    0.0000 C   0  0  0  0  0  0  0  0  0  0  0  0
    8.1240   -1.6002    0.0000 C   0  0  0  0  0  0  0  0  0  0  0  0
    4.2690   -0.8450    0.0000 C   0  0  0  0  0  0  0  0  0  0  0  0
    4.2690    2.1550    0.0000 C   0  0  0  0  0  0  0  0  0  0  0  0
    3.4030    2.6550    0.0000 C   0  0  0  0  0  0  0  0  0  0  0  0
    5.1350    2.6550    0.0000 C   0  0  0  0  0  0  0  0  0  0  0  0
    3.4030    3.6550    0.0000 C   0  0  0  0  0  0  0  0  0  0  0  0
    5.1350    3.6550    0.0000 C   0  0  0  0  0  0  0  0  0  0  0  0
    4.2690    4.1550    0.0000 C   0  0  0  0  0  0  0  0  0  0  0  0
    3.4030   -3.3450    0.0000 C   0  0  0  0  0  0  0  0  0  0  0  0
    2.5369   -3.8450    0.0000 C   0  0  0  0  0  0  0  0  0  0  0  0
    6.0010   -1.4650    0.0000 H   0  0  0  0  0  0  0  0  0  0  0  0
    3.7320    0.8450    0.0000 H   0  0  0  0  0  0  0  0  0  0  0  0
    9.0169    0.1550    0.0000 H   0  0  0  0  0  0  0  0  0  0  0  0
    7.5346   -1.7929    0.0000 H   0  0  0  0  0  0  0  0  0  0  0  0
    8.3166   -2.1896    0.0000 H   0  0  0  0  0  0  0  0  0  0  0  0
    8.7133   -1.4076    0.0000 H   0  0  0  0  0  0  0  0  0  0  0  0
    5.6720    2.3450    0.0000 H   0  0  0  0  0  0  0  0  0  0  0  0
    4.8059   -2.1550    0.0000 H   0  0  0  0  0  0  0  0  0  0  0  0
    2.8660    3.9650    0.0000 H   0  0  0  0  0  0  0  0  0  0  0  0
    5.6720    3.9650    0.0000 H   0  0  0  0  0  0  0  0  0  0  0  0
    3.6150   -3.9276    0.0000 H   0  0  0  0  0  0  0  0  0  0  0  0
    4.0135   -3.2373    0.0000 H   0  0  0  0  0  0  0  0  0  0  0  0
    2.3249   -3.2624    0.0000 H   0  0  0  0  0  0  0  0  0  0  0  0
    1.9264   -3.9527    0.0000 H   0  0  0  0  0  0  0  0  0  0  0  0
    2.0000   -5.1550    0.0000 H   0  0  0  0  0  0  0  0  0  0  0  0
  1 25  1  0  0  0  0
  2 21  1  0  0  0  0
  3 16  1  0  0  0  0
  4 10  1  0  0  0  0
  4 26  1  0  0  0  0
  5 19  2  0  0  0  0
  6 27  1  0  0  0  0
  6 42  1  0  0  0  0
  7 11  1  0  0  0  0
  7 17  1  0  0  0  0
  7 18  1  0  0  0  0
  8 13  1  0  0  0  0
  8 20  1  0  0  0  0
  8 29  1  0  0  0  0
  9 12  1  0  0  0  0
  9 17  2  0  0  0  0
 10 19  1  0  0  0  0
 10 35  1  0  0  0  0
 11 12  2  0  0  0  0
 11 15  1  0  0  0  0
 12 16  1  0  0  0  0
 13 14  1  0  0  0  0
 13 16  2  0  0  0  0
 14 15  2  0  0  0  0
 14 19  1  0  0  0  0
 15 28  1  0  0  0  0
 17 30  1  0  0  0  0
 18 31  1  0  0  0  0
 18 32  1  0  0  0  0
 18 33  1  0  0  0  0
 20 21  2  0  0  0  0
 20 22  1  0  0  0  0
 21 23  1  0  0  0  0
 22 24  2  0  0  0  0
 22 34  1  0  0  0  0
 23 25  2  0  0  0  0
 23 36  1  0  0  0  0
 24 25  1  0  0  0  0
 24 37  1  0  0  0  0
 26 27  1  0  0  0  0
 26 38  1  0  0  0  0
 26 39  1  0  0  0  0
 27 40  1  0  0  0  0
 27 41  1  0  0  0  0
M  END
> <PUBCHEM_COMPOUND_CID>
10127622

> <PUBCHEM_COMPOUND_CANONICALIZED>
1

> <PUBCHEM_CACTVS_COMPLEXITY>
523

> <PUBCHEM_CACTVS_HBOND_ACCEPTOR>
6

> <PUBCHEM_CACTVS_HBOND_DONOR>
3

> <PUBCHEM_CACTVS_ROTATABLE_BOND>
6

> <PUBCHEM_CACTVS_SUBSKEYS>
AAADccB7sQAEEAAAAAAAAAAAAAAAAWAAAAAwYAAAAAAAAFgB9AAAHwJUCAABrAqhni430LfcEgCoAyVzdACCgC01F6Qp2CE4dviJePrB39HUJYhokALJy/cciQCeCACgQARCADAQAUCACIQAYAAAAAAAAA==

> <PUBCHEM_IUPAC_OPENEYE_NAME>
6-(4-bromo-2-chloro-anilino)-7-fluoro-N-(2-hydroxyethoxy)-3-methyl-benzimidazole-5-carboxamide

> <PUBCHEM_IUPAC_CAS_NAME>
6-(4-bromo-2-chloroanilino)-7-fluoro-N-(2-hydroxyethoxy)-3-methyl-5-benzimidazolecarboxamide

> <PUBCHEM_IUPAC_NAME>
6-(4-bromo-2-chloroanilino)-7-fluoro-N-(2-hydroxyethoxy)-3-methylbenzimidazole-5-carboxamide

> <PUBCHEM_IUPAC_SYSTEMATIC_NAME>
6-[(4-bromanyl-2-chloranyl-phenyl)amino]-7-fluoranyl-N-(2-hydroxyethyloxy)-3-methyl-benzimidazole-5-carboxamide

> <PUBCHEM_IUPAC_TRADITIONAL_NAME>
6-(4-bromo-2-chloro-anilino)-7-fluoro-N-(2-hydroxyethoxy)-3-methyl-benzimidazole-5-carboxamide

> <PUBCHEM_IUPAC_INCHI>
InChI=1S/C17H15BrClFN4O3/c1-24-8-21-16-13(24)7-10(17(26)23-27-5-4-25)15(14(16)20)22-12-3-2-9(18)6-11(12)19/h2-3,6-8,22,25H,4-5H2,1H3,(H,23,26)

> <PUBCHEM_IUPAC_INCHIKEY>
CYOHGALHFOKKQC-UHFFFAOYSA-N

> <PUBCHEM_XLOGP3_AA>
3.6

> <PUBCHEM_EXACT_MASS>
456.000008

> <PUBCHEM_MOLECULAR_FORMULA>
C17H15BrClFN4O3

> <PUBCHEM_MOLECULAR_WEIGHT>
457.681403

> <PUBCHEM_OPENEYE_CAN_SMILES>
CN1C=NC2=C1C=C(C(=C2F)NC3=C(C=C(C=C3)Br)Cl)C(=O)NOCCO

> <PUBCHEM_OPENEYE_ISO_SMILES>
CN1C=NC2=C1C=C(C(=C2F)NC3=C(C=C(C=C3)Br)Cl)C(=O)NOCCO

> <PUBCHEM_CACTVS_TPSA>
88.4

> <PUBCHEM_MONOISOTOPIC_WEIGHT>
456.000008

> <PUBCHEM_TOTAL_CHARGE>
0

> <PUBCHEM_HEAVY_ATOM_COUNT>
27

> <PUBCHEM_ATOM_DEF_STEREO_COUNT>
0

> <PUBCHEM_ATOM_UDEF_STEREO_COUNT>
0

> <PUBCHEM_BOND_DEF_STEREO_COUNT>
0

> <PUBCHEM_BOND_UDEF_STEREO_COUNT>
0

> <PUBCHEM_ISOTOPIC_ATOM_COUNT>
0

> <PUBCHEM_COMPONENT_COUNT>
1

> <PUBCHEM_CACTVS_TAUTO_COUNT>
5

> <PUBCHEM_COORDINATE_TYPE>
1
5
255

> <PUBCHEM_BONDANNOTATIONS>
11  12  8
11  15  8
12  16  8
13  14  8
13  16  8
14  15  8
20  21  8
20  22  8
21  23  8
22  24  8
23  25  8
24  25  8
7  11  8
7  17  8
9  12  8
9  17  8

$$$$
10184653
  -OEChem-11121519512D

 59 62  0     1  0  0  0  0  0999 V2000
    9.7758   -4.0738    0.0000 Cl  0  0  0  0  0  0  0  0  0  0  0  0
   11.5193   -3.0939    0.0000 F   0  0  0  0  0  0  0  0  0  0  0  0
    4.0981    4.5194    0.0000 O   0  0  0  0  0  0  0  0  0  0  0  0
    4.5981    1.9806    0.0000 O   0  0  0  0  0  0  0  0  0  0  0  0
    5.4641   -1.5194    0.0000 O   0  0  0  0  0  0  0  0  0  0  0  0
    4.5981   -0.0194    0.0000 N   0  0  0  0  0  0  0  0  0  0  0  0
    8.0901    2.0152    0.0000 N   0  0  0  0  0  0  0  0  0  0  0  0
    8.0785   -1.0540    0.0000 N   0  0  0  0  0  0  0  0  0  0  0  0
    8.9962    0.4598    0.0000 N   0  0  0  0  0  0  0  0  0  0  0  0
    2.8660   -4.0194    0.0000 N   0  0  0  0  0  0  0  0  0  0  0  0
    4.5981    2.9806    0.0000 C   0  0  1  0  0  0  0  0  0  0  0  0
    5.4071    3.5684    0.0000 C   0  0  0  0  0  0  0  0  0  0  0  0
    3.7891    3.5684    0.0000 C   0  0  0  0  0  0  0  0  0  0  0  0
    5.0981    4.5194    0.0000 C   0  0  0  0  0  0  0  0  0  0  0  0
    5.4641    1.4806    0.0000 C   0  0  0  0  0  0  0  0  0  0  0  0
    5.4641    0.4806    0.0000 C   0  0  0  0  0  0  0  0  0  0  0  0
    6.3301    1.9806    0.0000 C   0  0  0  0  0  0  0  0  0  0  0  0
    7.1962    0.4806    0.0000 C   0  0  0  0  0  0  0  0  0  0  0  0
    7.1962    1.4806    0.0000 C   0  0  0  0  0  0  0  0  0  0  0  0
    6.3301   -0.0194    0.0000 C   0  0  0  0  0  0  0  0  0  0  0  0
    8.0901   -0.0541    0.0000 C   0  0  0  0  0  0  0  0  0  0  0  0
    4.5981   -1.0194    0.0000 C   0  0  0  0  0  0  0  0  0  0  0  0
    8.9962    1.5014    0.0000 C   0  0  0  0  0  0  0  0  0  0  0  0
    8.9387   -1.5640    0.0000 C   0  0  0  0  0  0  0  0  0  0  0  0
    3.7320   -1.5194    0.0000 C   0  0  0  0  0  0  0  0  0  0  0  0
    2.8660   -3.0194    0.0000 C   0  0  0  0  0  0  0  0  0  0  0  0
    3.7320   -2.5194    0.0000 C   0  0  0  0  0  0  0  0  0  0  0  0
    8.9271   -2.5639    0.0000 C   0  0  0  0  0  0  0  0  0  0  0  0
    9.8105   -1.0740    0.0000 C   0  0  0  0  0  0  0  0  0  0  0  0
    9.7873   -3.0739    0.0000 C   0  0  0  0  0  0  0  0  0  0  0  0
   10.6707   -1.5840    0.0000 C   0  0  0  0  0  0  0  0  0  0  0  0
    2.0000   -4.5194    0.0000 C   0  0  0  0  0  0  0  0  0  0  0  0
    3.7320   -4.5194    0.0000 C   0  0  0  0  0  0  0  0  0  0  0  0
   10.6591   -2.5840    0.0000 C   0  0  0  0  0  0  0  0  0  0  0  0
    5.1505    2.6991    0.0000 H   0  0  0  0  0  0  0  0  0  0  0  0
    5.7171    3.0314    0.0000 H   0  0  0  0  0  0  0  0  0  0  0  0
    5.9735    3.8205    0.0000 H   0  0  0  0  0  0  0  0  0  0  0  0
    3.2227    3.8205    0.0000 H   0  0  0  0  0  0  0  0  0  0  0  0
    3.4791    3.0314    0.0000 H   0  0  0  0  0  0  0  0  0  0  0  0
    5.7045    4.6483    0.0000 H   0  0  0  0  0  0  0  0  0  0  0  0
    5.0333    5.1360    0.0000 H   0  0  0  0  0  0  0  0  0  0  0  0
    6.3301    2.6006    0.0000 H   0  0  0  0  0  0  0  0  0  0  0  0
    6.3301   -0.6394    0.0000 H   0  0  0  0  0  0  0  0  0  0  0  0
    4.0611    0.2906    0.0000 H   0  0  0  0  0  0  0  0  0  0  0  0
    7.5380   -1.3578    0.0000 H   0  0  0  0  0  0  0  0  0  0  0  0
    9.5319    1.8135    0.0000 H   0  0  0  0  0  0  0  0  0  0  0  0
    3.1951   -1.2094    0.0000 H   0  0  0  0  0  0  0  0  0  0  0  0
    2.6540   -2.4368    0.0000 H   0  0  0  0  0  0  0  0  0  0  0  0
    2.2554   -3.1271    0.0000 H   0  0  0  0  0  0  0  0  0  0  0  0
    4.2690   -2.8294    0.0000 H   0  0  0  0  0  0  0  0  0  0  0  0
    8.3867   -2.8677    0.0000 H   0  0  0  0  0  0  0  0  0  0  0  0
    9.8176   -0.4541    0.0000 H   0  0  0  0  0  0  0  0  0  0  0  0
   11.2111   -1.2803    0.0000 H   0  0  0  0  0  0  0  0  0  0  0  0
    1.6900   -3.9825    0.0000 H   0  0  0  0  0  0  0  0  0  0  0  0
    1.4631   -4.8294    0.0000 H   0  0  0  0  0  0  0  0  0  0  0  0
    2.3100   -5.0564    0.0000 H   0  0  0  0  0  0  0  0  0  0  0  0
    3.4220   -5.0564    0.0000 H   0  0  0  0  0  0  0  0  0  0  0  0
    4.2690   -4.8294    0.0000 H   0  0  0  0  0  0  0  0  0  0  0  0
    4.0420   -3.9825    0.0000 H   0  0  0  0  0  0  0  0  0  0  0  0
  1 30  1  0  0  0  0
  2 34  1  0  0  0  0
  3 13  1  0  0  0  0
  3 14  1  0  0  0  0
 11  4  1  6  0  0  0
  4 15  1  0  0  0  0
  5 22  2  0  0  0  0
  6 16  1  0  0  0  0
  6 22  1  0  0  0  0
  6 44  1  0  0  0  0
  7 19  1  0  0  0  0
  7 23  2  0  0  0  0
  8 21  1  0  0  0  0
  8 24  1  0  0  0  0
  8 45  1  0  0  0  0
  9 21  2  0  0  0  0
  9 23  1  0  0  0  0
 10 26  1  0  0  0  0
 10 32  1  0  0  0  0
 10 33  1  0  0  0  0
 11 12  1  0  0  0  0
 11 13  1  0  0  0  0
 11 35  1  0  0  0  0
 12 14  1  0  0  0  0
 12 36  1  0  0  0  0
 12 37  1  0  0  0  0
 13 38  1  0  0  0  0
 13 39  1  0  0  0  0
 14 40  1  0  0  0  0
 14 41  1  0  0  0  0
 15 16  2  0  0  0  0
 15 17  1  0  0  0  0
 16 20  1  0  0  0  0
 17 19  2  0  0  0  0
 17 42  1  0  0  0  0
 18 19  1  0  0  0  0
 18 20  2  0  0  0  0
 18 21  1  0  0  0  0
 20 43  1  0  0  0  0
 22 25  1  0  0  0  0
 23 46  1  0  0  0  0
 24 28  2  0  0  0  0
 24 29  1  0  0  0  0
 25 27  2  0  0  0  0
 25 47  1  0  0  0  0
 26 27  1  0  0  0  0
 26 48  1  0  0  0  0
 26 49  1  0  0  0  0
 27 50  1  0  0  0  0
 28 30  1  0  0  0  0
 28 51  1  0  0  0  0
 29 31  2  0  0  0  0
 29 52  1  0  0  0  0
 30 34  2  0  0  0  0
 31 34  1  0  0  0  0
 31 53  1  0  0  0  0
 32 54  1  0  0  0  0
 32 55  1  0  0  0  0
 32 56  1  0  0  0  0
 33 57  1  0  0  0  0
 33 58  1  0  0  0  0
 33 59  1  0  0  0  0
M  END
> <PUBCHEM_COMPOUND_CID>
10184653

> <PUBCHEM_COMPOUND_CANONICALIZED>
1

> <PUBCHEM_CACTVS_COMPLEXITY>
702

> <PUBCHEM_CACTVS_HBOND_ACCEPTOR>
8

> <PUBCHEM_CACTVS_HBOND_DONOR>
2

> <PUBCHEM_CACTVS_ROTATABLE_BOND>
8

> <PUBCHEM_CACTVS_SUBSKEYS>
AAADceB7sQAEAAAAAAAAAAAAAAAAASAAAAA8YIAAAAAAAACx9AAAHwIQAAAADB7hni439vfIFACoAydzdACCiCkxJ6AJ2CA/btiPLuLF+9uHPCjv1Bva6aeQ0AMOIACAQgICEABAAQCEBAQgAAAAAAAAAA==

> <PUBCHEM_IUPAC_OPENEYE_NAME>
(E)-N-[4-(3-chloro-4-fluoro-anilino)-7-[(3S)-tetrahydrofuran-3-yl]oxy-quinazolin-6-yl]-4-(dimethylamino)but-2-enamide

> <PUBCHEM_IUPAC_CAS_NAME>
(E)-N-[4-(3-chloro-4-fluoroanilino)-7-[[(3S)-3-oxolanyl]oxy]-6-quinazolinyl]-4-(dimethylamino)-2-butenamide

> <PUBCHEM_IUPAC_NAME>
(E)-N-[4-(3-chloro-4-fluoroanilino)-7-[(3S)-oxolan-3-yl]oxyquinazolin-6-yl]-4-(dimethylamino)but-2-enamide

> <PUBCHEM_IUPAC_SYSTEMATIC_NAME>
(E)-N-[4-[(3-chloranyl-4-fluoranyl-phenyl)amino]-7-[(3S)-oxolan-3-yl]oxy-quinazolin-6-yl]-4-(dimethylamino)but-2-enamide

> <PUBCHEM_IUPAC_TRADITIONAL_NAME>
(E)-N-[4-(3-chloro-4-fluoro-anilino)-7-[(3S)-tetrahydrofuran-3-yl]oxy-quinazolin-6-yl]-4-(dimethylamino)but-2-enamide

> <PUBCHEM_IUPAC_INCHI>
InChI=1S/C24H25ClFN5O3/c1-31(2)8-3-4-23(32)30-21-11-17-20(12-22(21)34-16-7-9-33-13-16)27-14-28-24(17)29-15-5-6-19(26)18(25)10-15/h3-6,10-12,14,16H,7-9,13H2,1-2H3,(H,30,32)(H,27,28,29)/b4-3+/t16-/m0/s1

> <PUBCHEM_IUPAC_INCHIKEY>
ULXXDDBFHOBEHA-CWDCEQMOSA-N

> <PUBCHEM_XLOGP3_AA>
3.6

> <PUBCHEM_EXACT_MASS>
485.162996

> <PUBCHEM_MOLECULAR_FORMULA>
C24H25ClFN5O3

> <PUBCHEM_MOLECULAR_WEIGHT>
485.938403

> <PUBCHEM_OPENEYE_CAN_SMILES>
CN(C)CC=CC(=O)NC1=C(C=C2C(=C1)C(=NC=N2)NC3=CC(=C(C=C3)F)Cl)OC4CCOC4

> <PUBCHEM_OPENEYE_ISO_SMILES>
CN(C)C/C=C/C(=O)NC1=C(C=C2C(=C1)C(=NC=N2)NC3=CC(=C(C=C3)F)Cl)O[C@H]4CCOC4

> <PUBCHEM_CACTVS_TPSA>
88.6

> <PUBCHEM_MONOISOTOPIC_WEIGHT>
485.162996

> <PUBCHEM_TOTAL_CHARGE>
0

> <PUBCHEM_HEAVY_ATOM_COUNT>
34

> <PUBCHEM_ATOM_DEF_STEREO_COUNT>
1

> <PUBCHEM_ATOM_UDEF_STEREO_COUNT>
0

> <PUBCHEM_BOND_DEF_STEREO_COUNT>
1

> <PUBCHEM_BOND_UDEF_STEREO_COUNT>
0

> <PUBCHEM_ISOTOPIC_ATOM_COUNT>
0

> <PUBCHEM_COMPONENT_COUNT>
1

> <PUBCHEM_CACTVS_TAUTO_COUNT>
6

> <PUBCHEM_COORDINATE_TYPE>
1
5
255

> <PUBCHEM_BONDANNOTATIONS>
15  16  8
15  17  8
16  20  8
17  19  8
18  19  8
18  20  8
18  21  8
24  28  8
24  29  8
28  30  8
29  31  8
30  34  8
31  34  8
11  4  6
7  19  8
7  23  8
9  21  8
9  23  8

$$$$
10302451
  -OEChem-11121519512D

 70 75  0     0  0  0  0  0  0999 V2000
    8.9560   -1.7470    0.0000 Cl  0  0  0  0  0  0  0  0  0  0  0  0
    5.4641   -2.6923    0.0000 O   0  0  0  0  0  0  0  0  0  0  0  0
    2.8660   -4.1923    0.0000 O   0  0  0  0  0  0  0  0  0  0  0  0
    3.7320    0.3077    0.0000 O   0  0  0  0  0  0  0  0  0  0  0  0
    7.3164   -4.8953    0.0000 O   0  0  0  0  0  0  0  0  0  0  0  0
    8.7009   -5.7161    0.0000 O   0  0  0  0  0  0  0  0  0  0  0  0
    2.8660    2.8077    0.0000 N   0  0  0  0  0  0  0  0  0  0  0  0
    2.8660    4.8077    0.0000 N   0  0  0  0  0  0  0  0  0  0  0  0
    7.2125   -2.7269    0.0000 N   0  0  0  0  0  0  0  0  0  0  0  0
    7.2241    0.3424    0.0000 N   0  0  0  0  0  0  0  0  0  0  0  0
    8.1301   -1.2131    0.0000 N   0  0  0  0  0  0  0  0  0  0  0  0
    2.0000    3.3077    0.0000 C   0  0  0  0  0  0  0  0  0  0  0  0
    3.7320    3.3077    0.0000 C   0  0  0  0  0  0  0  0  0  0  0  0
    2.0000    4.3077    0.0000 C   0  0  0  0  0  0  0  0  0  0  0  0
    3.7320    4.3077    0.0000 C   0  0  0  0  0  0  0  0  0  0  0  0
    2.8660    1.8077    0.0000 C   0  0  0  0  0  0  0  0  0  0  0  0
    4.5981   -3.1923    0.0000 C   0  0  0  0  0  0  0  0  0  0  0  0
    3.7320   -2.6923    0.0000 C   0  0  0  0  0  0  0  0  0  0  0  0
    4.5981   -4.1923    0.0000 C   0  0  0  0  0  0  0  0  0  0  0  0
    3.7320    1.3077    0.0000 C   0  0  0  0  0  0  0  0  0  0  0  0
    2.8660    5.8077    0.0000 C   0  0  0  0  0  0  0  0  0  0  0  0
    3.7320   -4.6923    0.0000 C   0  0  0  0  0  0  0  0  0  0  0  0
    2.8660   -3.1923    0.0000 C   0  0  0  0  0  0  0  0  0  0  0  0
    5.4641   -1.6923    0.0000 C   0  0  0  0  0  0  0  0  0  0  0  0
    4.5981   -0.1923    0.0000 C   0  0  0  0  0  0  0  0  0  0  0  0
    6.3301   -1.1923    0.0000 C   0  0  0  0  0  0  0  0  0  0  0  0
    4.5981   -1.1923    0.0000 C   0  0  0  0  0  0  0  0  0  0  0  0
    6.3301   -0.1923    0.0000 C   0  0  0  0  0  0  0  0  0  0  0  0
    5.4641    0.3077    0.0000 C   0  0  0  0  0  0  0  0  0  0  0  0
    7.2241   -1.7269    0.0000 C   0  0  0  0  0  0  0  0  0  0  0  0
    8.0727   -3.2369    0.0000 C   0  0  0  0  0  0  0  0  0  0  0  0
    8.1301   -0.1715    0.0000 C   0  0  0  0  0  0  0  0  0  0  0  0
    8.0611   -4.2368    0.0000 C   0  0  0  0  0  0  0  0  0  0  0  0
    8.9213   -4.7468    0.0000 C   0  0  0  0  0  0  0  0  0  0  0  0
    8.9444   -2.7469    0.0000 C   0  0  0  0  0  0  0  0  0  0  0  0
    9.7931   -4.2568    0.0000 C   0  0  0  0  0  0  0  0  0  0  0  0
    9.8046   -3.2569    0.0000 C   0  0  0  0  0  0  0  0  0  0  0  0
    7.7110   -5.8077    0.0000 C   0  0  0  0  0  0  0  0  0  0  0  0
    3.9441    2.7251    0.0000 H   0  0  0  0  0  0  0  0  0  0  0  0
    4.3426    3.4154    0.0000 H   0  0  0  0  0  0  0  0  0  0  0  0
    1.3894    3.4154    0.0000 H   0  0  0  0  0  0  0  0  0  0  0  0
    1.7880    2.7251    0.0000 H   0  0  0  0  0  0  0  0  0  0  0  0
    4.3426    4.2001    0.0000 H   0  0  0  0  0  0  0  0  0  0  0  0
    3.9441    4.8903    0.0000 H   0  0  0  0  0  0  0  0  0  0  0  0
    1.7880    4.8903    0.0000 H   0  0  0  0  0  0  0  0  0  0  0  0
    1.3894    4.2001    0.0000 H   0  0  0  0  0  0  0  0  0  0  0  0
    2.2554    1.9154    0.0000 H   0  0  0  0  0  0  0  0  0  0  0  0
    2.6540    1.2251    0.0000 H   0  0  0  0  0  0  0  0  0  0  0  0
    4.5981   -2.5723    0.0000 H   0  0  0  0  0  0  0  0  0  0  0  0
    4.8101   -4.7749    0.0000 H   0  0  0  0  0  0  0  0  0  0  0  0
    5.2087   -4.0846    0.0000 H   0  0  0  0  0  0  0  0  0  0  0  0
    4.1306   -2.2173    0.0000 H   0  0  0  0  0  0  0  0  0  0  0  0
    3.3335   -2.2173    0.0000 H   0  0  0  0  0  0  0  0  0  0  0  0
    4.3426    1.2001    0.0000 H   0  0  0  0  0  0  0  0  0  0  0  0
    3.9441    1.8903    0.0000 H   0  0  0  0  0  0  0  0  0  0  0  0
    3.4860    5.8077    0.0000 H   0  0  0  0  0  0  0  0  0  0  0  0
    2.8660    6.4277    0.0000 H   0  0  0  0  0  0  0  0  0  0  0  0
    2.2460    5.8077    0.0000 H   0  0  0  0  0  0  0  0  0  0  0  0
    3.3335   -5.1672    0.0000 H   0  0  0  0  0  0  0  0  0  0  0  0
    4.1306   -5.1672    0.0000 H   0  0  0  0  0  0  0  0  0  0  0  0
    2.6540   -2.6097    0.0000 H   0  0  0  0  0  0  0  0  0  0  0  0
    2.2554   -3.2999    0.0000 H   0  0  0  0  0  0  0  0  0  0  0  0
    4.0611   -1.5023    0.0000 H   0  0  0  0  0  0  0  0  0  0  0  0
    5.4641    0.9277    0.0000 H   0  0  0  0  0  0  0  0  0  0  0  0
    6.6720   -3.0306    0.0000 H   0  0  0  0  0  0  0  0  0  0  0  0
    8.6659    0.1406    0.0000 H   0  0  0  0  0  0  0  0  0  0  0  0
   10.3264   -4.5730    0.0000 H   0  0  0  0  0  0  0  0  0  0  0  0
   10.3451   -2.9531    0.0000 H   0  0  0  0  0  0  0  0  0  0  0  0
    7.1193   -5.9926    0.0000 H   0  0  0  0  0  0  0  0  0  0  0  0
    7.8328   -6.4156    0.0000 H   0  0  0  0  0  0  0  0  0  0  0  0
  1 35  1  0  0  0  0
  2 17  1  0  0  0  0
  2 24  1  0  0  0  0
  3 22  1  0  0  0  0
  3 23  1  0  0  0  0
  4 20  1  0  0  0  0
  4 25  1  0  0  0  0
  5 33  1  0  0  0  0
  5 38  1  0  0  0  0
  6 34  1  0  0  0  0
  6 38  1  0  0  0  0
  7 12  1  0  0  0  0
  7 13  1  0  0  0  0
  7 16  1  0  0  0  0
  8 14  1  0  0  0  0
  8 15  1  0  0  0  0
  8 21  1  0  0  0  0
  9 30  1  0  0  0  0
  9 31  1  0  0  0  0
  9 65  1  0  0  0  0
 10 28  1  0  0  0  0
 10 32  2  0  0  0  0
 11 30  2  0  0  0  0
 11 32  1  0  0  0  0
 12 14  1  0  0  0  0
 12 41  1  0  0  0  0
 12 42  1  0  0  0  0
 13 15  1  0  0  0  0
 13 39  1  0  0  0  0
 13 40  1  0  0  0  0
 14 45  1  0  0  0  0
 14 46  1  0  0  0  0
 15 43  1  0  0  0  0
 15 44  1  0  0  0  0
 16 20  1  0  0  0  0
 16 47  1  0  0  0  0
 16 48  1  0  0  0  0
 17 18  1  0  0  0  0
 17 19  1  0  0  0  0
 17 49  1  0  0  0  0
 18 23  1  0  0  0  0
 18 52  1  0  0  0  0
 18 53  1  0  0  0  0
 19 22  1  0  0  0  0
 19 50  1  0  0  0  0
 19 51  1  0  0  0  0
 20 54  1  0  0  0  0
 20 55  1  0  0  0  0
 21 56  1  0  0  0  0
 21 57  1  0  0  0  0
 21 58  1  0  0  0  0
 22 59  1  0  0  0  0
 22 60  1  0  0  0  0
 23 61  1  0  0  0  0
 23 62  1  0  0  0  0
 24 26  1  0  0  0  0
 24 27  2  0  0  0  0
 25 27  1  0  0  0  0
 25 29  2  0  0  0  0
 26 28  2  0  0  0  0
 26 30  1  0  0  0  0
 27 63  1  0  0  0  0
 28 29  1  0  0  0  0
 29 64  1  0  0  0  0
 31 33  1  0  0  0  0
 31 35  2  0  0  0  0
 32 66  1  0  0  0  0
 33 34  2  0  0  0  0
 34 36  1  0  0  0  0
 35 37  1  0  0  0  0
 36 37  2  0  0  0  0
 36 67  1  0  0  0  0
 37 68  1  0  0  0  0
 38 69  1  0  0  0  0
 38 70  1  0  0  0  0
M  END
> <PUBCHEM_COMPOUND_CID>
10302451

> <PUBCHEM_COMPOUND_CANONICALIZED>
1

> <PUBCHEM_CACTVS_COMPLEXITY>
743

> <PUBCHEM_CACTVS_HBOND_ACCEPTOR>
10

> <PUBCHEM_CACTVS_HBOND_DONOR>
1

> <PUBCHEM_CACTVS_ROTATABLE_BOND>
8

> <PUBCHEM_CACTVS_SUBSKEYS>
AAADcfB7uAAEAAAAAAAAAAAAAAAAASAAAAA8eJECAAAAAEix9AAAHgIQAAAADB7hnic3/vfIFACgAyZjZACCiCkxJ6AJ2CA/7pifb2LF+9v3PCrvwB/e6CeQ8C8OICAACwAKUBBAQAAWABSgIAAAAAAAAA==

> <PUBCHEM_IUPAC_OPENEYE_NAME>
N-(5-chloro-1,3-benzodioxol-4-yl)-7-[2-(4-methylpiperazin-1-yl)ethoxy]-5-tetrahydropyran-4-yloxy-quinazolin-4-amine

> <PUBCHEM_IUPAC_CAS_NAME>
N-(5-chloro-1,3-benzodioxol-4-yl)-7-[2-(4-methyl-1-piperazinyl)ethoxy]-5-(4-oxanyloxy)-4-quinazolinamine

> <PUBCHEM_IUPAC_NAME>
N-(5-chloro-1,3-benzodioxol-4-yl)-7-[2-(4-methylpiperazin-1-yl)ethoxy]-5-(oxan-4-yloxy)quinazolin-4-amine

> <PUBCHEM_IUPAC_SYSTEMATIC_NAME>
N-(5-chloranyl-1,3-benzodioxol-4-yl)-7-[2-(4-methylpiperazin-1-yl)ethoxy]-5-(oxan-4-yloxy)quinazolin-4-amine

> <PUBCHEM_IUPAC_TRADITIONAL_NAME>
(5-chloro-1,3-benzodioxol-4-yl)-[7-[2-(4-methylpiperazino)ethoxy]-5-tetrahydropyran-4-yloxy-quinazolin-4-yl]amine

> <PUBCHEM_IUPAC_INCHI>
InChI=1S/C27H32ClN5O5/c1-32-6-8-33(9-7-32)10-13-35-19-14-21-24(23(15-19)38-18-4-11-34-12-5-18)27(30-16-29-21)31-25-20(28)2-3-22-26(25)37-17-36-22/h2-3,14-16,18H,4-13,17H2,1H3,(H,29,30,31)

> <PUBCHEM_IUPAC_INCHIKEY>
OUKYUETWWIPKQR-UHFFFAOYSA-N

> <PUBCHEM_XLOGP3_AA>
4.1

> <PUBCHEM_EXACT_MASS>
541.209197

> <PUBCHEM_MOLECULAR_FORMULA>
C27H32ClN5O5

> <PUBCHEM_MOLECULAR_WEIGHT>
542.02648

> <PUBCHEM_OPENEYE_CAN_SMILES>
CN1CCN(CC1)CCOC2=CC(=C3C(=C2)N=CN=C3NC4=C(C=CC5=C4OCO5)Cl)OC6CCOCC6

> <PUBCHEM_OPENEYE_ISO_SMILES>
CN1CCN(CC1)CCOC2=CC(=C3C(=C2)N=CN=C3NC4=C(C=CC5=C4OCO5)Cl)OC6CCOCC6

> <PUBCHEM_CACTVS_TPSA>
90.4

> <PUBCHEM_MONOISOTOPIC_WEIGHT>
541.209197

> <PUBCHEM_TOTAL_CHARGE>
0

> <PUBCHEM_HEAVY_ATOM_COUNT>
38

> <PUBCHEM_ATOM_DEF_STEREO_COUNT>
0

> <PUBCHEM_ATOM_UDEF_STEREO_COUNT>
0

> <PUBCHEM_BOND_DEF_STEREO_COUNT>
0

> <PUBCHEM_BOND_UDEF_STEREO_COUNT>
0

> <PUBCHEM_ISOTOPIC_ATOM_COUNT>
0

> <PUBCHEM_COMPONENT_COUNT>
1

> <PUBCHEM_CACTVS_TAUTO_COUNT>
3

> <PUBCHEM_COORDINATE_TYPE>
1
5
255

> <PUBCHEM_BONDANNOTATIONS>
10  28  8
10  32  8
11  30  8
11  32  8
24  26  8
24  27  8
25  27  8
25  29  8
26  28  8
26  30  8
28  29  8
31  33  8
31  35  8
33  34  8
34  36  8
35  37  8
36  37  8

$$$$
11152667
  -OEChem-11121519512D

 44 46  0     1  0  0  0  0  0999 V2000
    6.0600   -0.2997    0.0000 S   0  0  0  0  0  0  0  0  0  0  0  0
    5.1370   -3.8874    0.0000 F   0  0  0  0  0  0  0  0  0  0  0  0
    6.1880    2.3739    0.0000 O   0  0  0  0  0  0  0  0  0  0  0  0
    9.3580    0.4423    0.0000 O   0  0  0  0  0  0  0  0  0  0  0  0
    2.6166    2.8694    0.0000 N   0  0  0  0  0  0  0  0  0  0  0  0
    4.7867    1.3559    0.0000 N   0  0  0  0  0  0  0  0  0  0  0  0
    7.9568    1.4604    0.0000 N   0  0  0  0  0  0  0  0  0  0  0  0
    9.5391    2.1649    0.0000 N   0  0  0  0  0  0  0  0  0  0  0  0
    4.1989    2.1649    0.0000 C   0  0  1  0  0  0  0  0  0  0  0  0
    4.6056    3.0784    0.0000 C   0  0  0  0  0  0  0  0  0  0  0  0
    4.0179    3.8874    0.0000 C   0  0  0  0  0  0  0  0  0  0  0  0
    3.2044    2.0604    0.0000 C   0  0  0  0  0  0  0  0  0  0  0  0
    3.0233    3.7829    0.0000 C   0  0  0  0  0  0  0  0  0  0  0  0
    5.7812    1.4604    0.0000 C   0  0  0  0  0  0  0  0  0  0  0  0
    6.3690    0.6514    0.0000 C   0  0  0  0  0  0  0  0  0  0  0  0
    7.3690    0.6514    0.0000 C   0  0  0  0  0  0  0  0  0  0  0  0
    6.8690   -0.8875    0.0000 C   0  0  0  0  0  0  0  0  0  0  0  0
    7.6780   -0.2997    0.0000 C   0  0  0  0  0  0  0  0  0  0  0  0
    6.8690   -1.8874    0.0000 C   0  0  0  0  0  0  0  0  0  0  0  0
    6.0030   -2.3874    0.0000 C   0  0  0  0  0  0  0  0  0  0  0  0
    7.7350   -2.3874    0.0000 C   0  0  0  0  0  0  0  0  0  0  0  0
    8.9513    1.3559    0.0000 C   0  0  0  0  0  0  0  0  0  0  0  0
    6.0030   -3.3874    0.0000 C   0  0  0  0  0  0  0  0  0  0  0  0
    7.7350   -3.3874    0.0000 C   0  0  0  0  0  0  0  0  0  0  0  0
    6.8690   -3.8874    0.0000 C   0  0  0  0  0  0  0  0  0  0  0  0
    3.9467    1.5985    0.0000 H   0  0  0  0  0  0  0  0  0  0  0  0
    5.1196    2.7317    0.0000 H   0  0  0  0  0  0  0  0  0  0  0  0
    5.0363    3.5244    0.0000 H   0  0  0  0  0  0  0  0  0  0  0  0
    4.5751    4.1592    0.0000 H   0  0  0  0  0  0  0  0  0  0  0  0
    3.8470    4.4834    0.0000 H   0  0  0  0  0  0  0  0  0  0  0  0
    2.6471    1.7886    0.0000 H   0  0  0  0  0  0  0  0  0  0  0  0
    3.3753    1.4644    0.0000 H   0  0  0  0  0  0  0  0  0  0  0  0
    3.0666    4.4014    0.0000 H   0  0  0  0  0  0  0  0  0  0  0  0
    2.4218    3.9329    0.0000 H   0  0  0  0  0  0  0  0  0  0  0  0
    2.0000    2.8046    0.0000 H   0  0  0  0  0  0  0  0  0  0  0  0
    4.5345    0.7895    0.0000 H   0  0  0  0  0  0  0  0  0  0  0  0
    8.2677   -0.4913    0.0000 H   0  0  0  0  0  0  0  0  0  0  0  0
    7.7046    2.0268    0.0000 H   0  0  0  0  0  0  0  0  0  0  0  0
    5.4660   -2.0775    0.0000 H   0  0  0  0  0  0  0  0  0  0  0  0
    8.2720   -2.0775    0.0000 H   0  0  0  0  0  0  0  0  0  0  0  0
    8.2720   -3.6974    0.0000 H   0  0  0  0  0  0  0  0  0  0  0  0
    6.8690   -4.5075    0.0000 H   0  0  0  0  0  0  0  0  0  0  0  0
   10.1557    2.1001    0.0000 H   0  0  0  0  0  0  0  0  0  0  0  0
    9.2869    2.7313    0.0000 H   0  0  0  0  0  0  0  0  0  0  0  0
  1 15  1  0  0  0  0
  1 17  1  0  0  0  0
  2 23  1  0  0  0  0
  3 14  2  0  0  0  0
  4 22  2  0  0  0  0
  5 12  1  0  0  0  0
  5 13  1  0  0  0  0
  5 35  1  0  0  0  0
  9  6  1  6  0  0  0
  6 14  1  0  0  0  0
  6 36  1  0  0  0  0
  7 16  1  0  0  0  0
  7 22  1  0  0  0  0
  7 38  1  0  0  0  0
  8 22  1  0  0  0  0
  8 43  1  0  0  0  0
  8 44  1  0  0  0  0
  9 10  1  0  0  0  0
  9 12  1  0  0  0  0
  9 26  1  0  0  0  0
 10 11  1  0  0  0  0
 10 27  1  0  0  0  0
 10 28  1  0  0  0  0
 11 13  1  0  0  0  0
 11 29  1  0  0  0  0
 11 30  1  0  0  0  0
 12 31  1  0  0  0  0
 12 32  1  0  0  0  0
 13 33  1  0  0  0  0
 13 34  1  0  0  0  0
 14 15  1  0  0  0  0
 15 16  2  0  0  0  0
 16 18  1  0  0  0  0
 17 18  2  0  0  0  0
 17 19  1  0  0  0  0
 18 37  1  0  0  0  0
 19 20  2  0  0  0  0
 19 21  1  0  0  0  0
 20 23  1  0  0  0  0
 20 39  1  0  0  0  0
 21 24  2  0  0  0  0
 21 40  1  0  0  0  0
 23 25  2  0  0  0  0
 24 25  1  0  0  0  0
 24 41  1  0  0  0  0
 25 42  1  0  0  0  0
M  END
> <PUBCHEM_COMPOUND_CID>
11152667

> <PUBCHEM_COMPOUND_CANONICALIZED>
1

> <PUBCHEM_CACTVS_COMPLEXITY>
495

> <PUBCHEM_CACTVS_HBOND_ACCEPTOR>
5

> <PUBCHEM_CACTVS_HBOND_DONOR>
4

> <PUBCHEM_CACTVS_ROTATABLE_BOND>
4

> <PUBCHEM_CACTVS_SUBSKEYS>
AAADceB7sQBAAAAAAAAAAAAAAAAAASAAAAA8QAAAAAAAAAABwAAAHwQQAAAADCjB2AwxwYLAAAiMAiVSUACDAIAlChBIiJ0IZMiIYDrg1ZGUIYxglgLoyWcYiMCOAAAAAAAAAAAAAAAAAAAAAAAAAAAAAA==

> <PUBCHEM_IUPAC_OPENEYE_NAME>
5-(3-fluorophenyl)-N-[(3S)-3-piperidyl]-3-ureido-thiophene-2-carboxamide

> <PUBCHEM_IUPAC_CAS_NAME>
3-(carbamoylamino)-5-(3-fluorophenyl)-N-[(3S)-3-piperidinyl]-2-thiophenecarboxamide

> <PUBCHEM_IUPAC_NAME>
3-(carbamoylamino)-5-(3-fluorophenyl)-N-[(3S)-piperidin-3-yl]thiophene-2-carboxamide

> <PUBCHEM_IUPAC_SYSTEMATIC_NAME>
3-(aminocarbonylamino)-5-(3-fluorophenyl)-N-[(3S)-piperidin-3-yl]thiophene-2-carboxamide

> <PUBCHEM_IUPAC_TRADITIONAL_NAME>
5-(3-fluorophenyl)-N-[(3S)-3-piperidyl]-3-ureido-thiophene-2-carboxamide

> <PUBCHEM_IUPAC_INCHI>
InChI=1S/C17H19FN4O2S/c18-11-4-1-3-10(7-11)14-8-13(22-17(19)24)15(25-14)16(23)21-12-5-2-6-20-9-12/h1,3-4,7-8,12,20H,2,5-6,9H2,(H,21,23)(H3,19,22,24)/t12-/m0/s1

> <PUBCHEM_IUPAC_INCHIKEY>
IAYGCINLNONXHY-LBPRGKRZSA-N

> <PUBCHEM_XLOGP3_AA>
2.3

> <PUBCHEM_EXACT_MASS>
362.121275

> <PUBCHEM_MOLECULAR_FORMULA>
C17H19FN4O2S

> <PUBCHEM_MOLECULAR_WEIGHT>
362.421763

> <PUBCHEM_OPENEYE_CAN_SMILES>
C1CC(CNC1)NC(=O)C2=C(C=C(S2)C3=CC(=CC=C3)F)NC(=O)N

> <PUBCHEM_OPENEYE_ISO_SMILES>
C1C[C@@H](CNC1)NC(=O)C2=C(C=C(S2)C3=CC(=CC=C3)F)NC(=O)N

> <PUBCHEM_CACTVS_TPSA>
125

> <PUBCHEM_MONOISOTOPIC_WEIGHT>
362.121275

> <PUBCHEM_TOTAL_CHARGE>
0

> <PUBCHEM_HEAVY_ATOM_COUNT>
25

> <PUBCHEM_ATOM_DEF_STEREO_COUNT>
1

> <PUBCHEM_ATOM_UDEF_STEREO_COUNT>
0

> <PUBCHEM_BOND_DEF_STEREO_COUNT>
0

> <PUBCHEM_BOND_UDEF_STEREO_COUNT>
0

> <PUBCHEM_ISOTOPIC_ATOM_COUNT>
0

> <PUBCHEM_COMPONENT_COUNT>
1

> <PUBCHEM_CACTVS_TAUTO_COUNT>
12

> <PUBCHEM_COORDINATE_TYPE>
1
5
255

> <PUBCHEM_BONDANNOTATIONS>
1  15  8
1  17  8
15  16  8
16  18  8
17  18  8
19  20  8
19  21  8
20  23  8
21  24  8
23  25  8
24  25  8
9  6  6

$$$$
11167602
  -OEChem-11121519512D

 48 50  0     0  0  0  0  0  0999 V2000
    2.0000    3.7500    0.0000 Cl  0  0  0  0  0  0  0  0  0  0  0  0
    4.5981   -0.7500    0.0000 F   0  0  0  0  0  0  0  0  0  0  0  0
    3.7320    5.7500    0.0000 F   0  0  0  0  0  0  0  0  0  0  0  0
    4.7320    4.7500    0.0000 F   0  0  0  0  0  0  0  0  0  0  0  0
    2.7320    4.7500    0.0000 F   0  0  0  0  0  0  0  0  0  0  0  0
    6.3301   -3.7500    0.0000 O   0  0  0  0  0  0  0  0  0  0  0  0
    4.5981    0.2500    0.0000 O   0  0  0  0  0  0  0  0  0  0  0  0
    9.7942   -2.7500    0.0000 O   0  0  0  0  0  0  0  0  0  0  0  0
    5.4641    1.7500    0.0000 N   0  0  0  0  0  0  0  0  0  0  0  0
    6.3301    0.2500    0.0000 N   0  0  0  0  0  0  0  0  0  0  0  0
    8.9282   -5.2500    0.0000 N   0  0  0  0  0  0  0  0  0  0  0  0
   10.6603   -4.2500    0.0000 N   0  0  0  0  0  0  0  0  0  0  0  0
    4.5981    2.2500    0.0000 C   0  0  0  0  0  0  0  0  0  0  0  0
    3.7320    3.7500    0.0000 C   0  0  0  0  0  0  0  0  0  0  0  0
    6.3301   -0.7500    0.0000 C   0  0  0  0  0  0  0  0  0  0  0  0
    4.5981    3.2500    0.0000 C   0  0  0  0  0  0  0  0  0  0  0  0
    6.3301   -2.7500    0.0000 C   0  0  0  0  0  0  0  0  0  0  0  0
    3.7320    1.7500    0.0000 C   0  0  0  0  0  0  0  0  0  0  0  0
    2.8660    3.2500    0.0000 C   0  0  0  0  0  0  0  0  0  0  0  0
    5.4641   -1.2500    0.0000 C   0  0  0  0  0  0  0  0  0  0  0  0
    7.1962   -1.2500    0.0000 C   0  0  0  0  0  0  0  0  0  0  0  0
    5.4641   -2.2500    0.0000 C   0  0  0  0  0  0  0  0  0  0  0  0
    7.1962   -2.2500    0.0000 C   0  0  0  0  0  0  0  0  0  0  0  0
    2.8660    2.2500    0.0000 C   0  0  0  0  0  0  0  0  0  0  0  0
    5.4641    0.7500    0.0000 C   0  0  0  0  0  0  0  0  0  0  0  0
    3.7320    4.7500    0.0000 C   0  0  0  0  0  0  0  0  0  0  0  0
    7.1962   -4.2500    0.0000 C   0  0  0  0  0  0  0  0  0  0  0  0
    8.0622   -3.7500    0.0000 C   0  0  0  0  0  0  0  0  0  0  0  0
    8.9282   -4.2500    0.0000 C   0  0  0  0  0  0  0  0  0  0  0  0
    7.1962   -5.2500    0.0000 C   0  0  0  0  0  0  0  0  0  0  0  0
    8.0622   -5.7500    0.0000 C   0  0  0  0  0  0  0  0  0  0  0  0
    9.7942   -3.7500    0.0000 C   0  0  0  0  0  0  0  0  0  0  0  0
   11.5263   -3.7500    0.0000 C   0  0  0  0  0  0  0  0  0  0  0  0
    5.1350    3.5600    0.0000 H   0  0  0  0  0  0  0  0  0  0  0  0
    3.7320    1.1300    0.0000 H   0  0  0  0  0  0  0  0  0  0  0  0
    6.0010    2.0600    0.0000 H   0  0  0  0  0  0  0  0  0  0  0  0
    7.7331   -0.9400    0.0000 H   0  0  0  0  0  0  0  0  0  0  0  0
    6.8671    0.5600    0.0000 H   0  0  0  0  0  0  0  0  0  0  0  0
    4.9272   -2.5600    0.0000 H   0  0  0  0  0  0  0  0  0  0  0  0
    7.7331   -2.5600    0.0000 H   0  0  0  0  0  0  0  0  0  0  0  0
    2.3291    1.9400    0.0000 H   0  0  0  0  0  0  0  0  0  0  0  0
    8.0622   -3.1300    0.0000 H   0  0  0  0  0  0  0  0  0  0  0  0
    6.6592   -5.5600    0.0000 H   0  0  0  0  0  0  0  0  0  0  0  0
    8.0622   -6.3700    0.0000 H   0  0  0  0  0  0  0  0  0  0  0  0
   10.6603   -4.8700    0.0000 H   0  0  0  0  0  0  0  0  0  0  0  0
   11.8363   -4.2869    0.0000 H   0  0  0  0  0  0  0  0  0  0  0  0
   12.0632   -3.4400    0.0000 H   0  0  0  0  0  0  0  0  0  0  0  0
   11.2163   -3.2131    0.0000 H   0  0  0  0  0  0  0  0  0  0  0  0
  1 19  1  0  0  0  0
  2 20  1  0  0  0  0
  3 26  1  0  0  0  0
  4 26  1  0  0  0  0
  5 26  1  0  0  0  0
  6 17  1  0  0  0  0
  6 27  1  0  0  0  0
  7 25  2  0  0  0  0
  8 32  2  0  0  0  0
  9 13  1  0  0  0  0
  9 25  1  0  0  0  0
  9 36  1  0  0  0  0
 10 15  1  0  0  0  0
 10 25  1  0  0  0  0
 10 38  1  0  0  0  0
 11 29  2  0  0  0  0
 11 31  1  0  0  0  0
 12 32  1  0  0  0  0
 12 33  1  0  0  0  0
 12 45  1  0  0  0  0
 13 16  2  0  0  0  0
 13 18  1  0  0  0  0
 14 16  1  0  0  0  0
 14 19  2  0  0  0  0
 14 26  1  0  0  0  0
 15 20  2  0  0  0  0
 15 21  1  0  0  0  0
 16 34  1  0  0  0  0
 17 22  2  0  0  0  0
 17 23  1  0  0  0  0
 18 24  2  0  0  0  0
 18 35  1  0  0  0  0
 19 24  1  0  0  0  0
 20 22  1  0  0  0  0
 21 23  2  0  0  0  0
 21 37  1  0  0  0  0
 22 39  1  0  0  0  0
 23 40  1  0  0  0  0
 24 41  1  0  0  0  0
 27 28  2  0  0  0  0
 27 30  1  0  0  0  0
 28 29  1  0  0  0  0
 28 42  1  0  0  0  0
 29 32  1  0  0  0  0
 30 31  2  0  0  0  0
 30 43  1  0  0  0  0
 31 44  1  0  0  0  0
 33 46  1  0  0  0  0
 33 47  1  0  0  0  0
 33 48  1  0  0  0  0
M  END
> <PUBCHEM_COMPOUND_CID>
11167602

> <PUBCHEM_COMPOUND_CANONICALIZED>
1

> <PUBCHEM_CACTVS_COMPLEXITY>
686

> <PUBCHEM_CACTVS_HBOND_ACCEPTOR>
8

> <PUBCHEM_CACTVS_HBOND_DONOR>
3

> <PUBCHEM_CACTVS_ROTATABLE_BOND>
5

> <PUBCHEM_CACTVS_SUBSKEYS>
AAADccB7scAEAAAAAAAAAAAAAAAAAAAAAAA8YIAAAAAAAAAB0AAAHwIQAAAADA7Bnjw/xpLIFACoAzV3VACCiCA3JyAI2KG+btiMZnLFt7uWOSju1hvI6ae6yAAOAEBAQAABAAAAgICAAAIAAAAAAAAAAA==

> <PUBCHEM_IUPAC_OPENEYE_NAME>
4-[4-[[4-chloro-3-(trifluoromethyl)phenyl]carbamoylamino]-3-fluoro-phenoxy]-N-methyl-pyridine-2-carboxamide

> <PUBCHEM_IUPAC_CAS_NAME>
4-[4-[[[4-chloro-3-(trifluoromethyl)anilino]-oxomethyl]amino]-3-fluorophenoxy]-N-methyl-2-pyridinecarboxamide

> <PUBCHEM_IUPAC_NAME>
4-[4-[[4-chloro-3-(trifluoromethyl)phenyl]carbamoylamino]-3-fluorophenoxy]-N-methylpyridine-2-carboxamide

> <PUBCHEM_IUPAC_SYSTEMATIC_NAME>
4-[4-[[4-chloranyl-3-(trifluoromethyl)phenyl]carbamoylamino]-3-fluoranyl-phenoxy]-N-methyl-pyridine-2-carboxamide

> <PUBCHEM_IUPAC_TRADITIONAL_NAME>
4-[4-[[4-chloro-3-(trifluoromethyl)phenyl]carbamoylamino]-3-fluoro-phenoxy]-N-methyl-picolinamide

> <PUBCHEM_IUPAC_INCHI>
InChI=1S/C21H15ClF4N4O3/c1-27-19(31)18-10-13(6-7-28-18)33-12-3-5-17(16(23)9-12)30-20(32)29-11-2-4-15(22)14(8-11)21(24,25)26/h2-10H,1H3,(H,27,31)(H2,29,30,32)

> <PUBCHEM_IUPAC_INCHIKEY>
FNHKPVJBJVTLMP-UHFFFAOYSA-N

> <PUBCHEM_XLOGP3_AA>
4.2

> <PUBCHEM_EXACT_MASS>
482.076881

> <PUBCHEM_MOLECULAR_FORMULA>
C21H15ClF4N4O3

> <PUBCHEM_MOLECULAR_WEIGHT>
482.815413

> <PUBCHEM_OPENEYE_CAN_SMILES>
CNC(=O)C1=NC=CC(=C1)OC2=CC(=C(C=C2)NC(=O)NC3=CC(=C(C=C3)Cl)C(F)(F)F)F

> <PUBCHEM_OPENEYE_ISO_SMILES>
CNC(=O)C1=NC=CC(=C1)OC2=CC(=C(C=C2)NC(=O)NC3=CC(=C(C=C3)Cl)C(F)(F)F)F

> <PUBCHEM_CACTVS_TPSA>
92.4

> <PUBCHEM_MONOISOTOPIC_WEIGHT>
482.076881

> <PUBCHEM_TOTAL_CHARGE>
0

> <PUBCHEM_HEAVY_ATOM_COUNT>
33

> <PUBCHEM_ATOM_DEF_STEREO_COUNT>
0

> <PUBCHEM_ATOM_UDEF_STEREO_COUNT>
0

> <PUBCHEM_BOND_DEF_STEREO_COUNT>
0

> <PUBCHEM_BOND_UDEF_STEREO_COUNT>
0

> <PUBCHEM_ISOTOPIC_ATOM_COUNT>
0

> <PUBCHEM_COMPONENT_COUNT>
1

> <PUBCHEM_CACTVS_TAUTO_COUNT>
6

> <PUBCHEM_COORDINATE_TYPE>
1
5
255

> <PUBCHEM_BONDANNOTATIONS>
11  29  8
11  31  8
13  16  8
13  18  8
14  16  8
14  19  8
15  20  8
15  21  8
17  22  8
17  23  8
18  24  8
19  24  8
20  22  8
21  23  8
27  28  8
27  30  8
28  29  8
30  31  8

$$$$
11213558
  -OEChem-11121519512D

 57 60  0     0  0  0  0  0  0999 V2000
    9.1243   -3.7483    0.0000 F   0  0  0  0  0  0  0  0  0  0  0  0
    3.8660   -0.7175    0.0000 O   0  0  0  0  0  0  0  0  0  0  0  0
    2.1340   -2.7175    0.0000 O   0  0  0  0  0  0  0  0  0  0  0  0
   12.6038    0.2383    0.0000 O   0  0  0  0  0  0  0  0  0  0  0  0
   10.8834    3.2450    0.0000 O   0  0  0  0  0  0  0  0  0  0  0  0
   12.6115    2.2383    0.0000 O   0  0  0  0  0  0  0  0  0  0  0  0
    3.8660   -2.7175    0.0000 N   0  0  0  0  0  0  0  0  0  0  0  0
    5.6260   -2.7522    0.0000 N   0  0  0  0  0  0  0  0  0  0  0  0
    7.3962   -2.7416    0.0000 N   0  0  0  0  0  0  0  0  0  0  0  0
    9.1398    0.2517    0.0000 N   0  0  0  0  0  0  0  0  0  0  0  0
    8.2680   -1.2450    0.0000 N   0  0  0  0  0  0  0  0  0  0  0  0
   10.0000   -1.2517    0.0000 N   0  0  0  0  0  0  0  0  0  0  0  0
    3.0000   -1.2175    0.0000 C   0  0  0  0  0  0  0  0  0  0  0  0
    3.0000   -2.2175    0.0000 C   0  0  0  0  0  0  0  0  0  0  0  0
    2.0000   -1.2175    0.0000 C   0  0  0  0  0  0  0  0  0  0  0  0
    2.5000   -0.3515    0.0000 C   0  0  0  0  0  0  0  0  0  0  0  0
    4.7320   -1.2175    0.0000 C   0  0  0  0  0  0  0  0  0  0  0  0
    4.7320   -2.2175    0.0000 C   0  0  0  0  0  0  0  0  0  0  0  0
    5.6260   -0.6828    0.0000 C   0  0  0  0  0  0  0  0  0  0  0  0
    6.5321   -2.2383    0.0000 C   0  0  0  0  0  0  0  0  0  0  0  0
    6.5321   -1.1967    0.0000 C   0  0  0  0  0  0  0  0  0  0  0  0
    8.2641   -2.2450    0.0000 C   0  0  0  0  0  0  0  0  0  0  0  0
   10.0077    0.7483    0.0000 C   0  0  0  0  0  0  0  0  0  0  0  0
   10.0116    1.7483    0.0000 C   0  0  0  0  0  0  0  0  0  0  0  0
   10.8718    0.2450    0.0000 C   0  0  0  0  0  0  0  0  0  0  0  0
   11.7397    0.7416    0.0000 C   0  0  0  0  0  0  0  0  0  0  0  0
   10.8795    2.2450    0.0000 C   0  0  0  0  0  0  0  0  0  0  0  0
   11.7436    1.7416    0.0000 C   0  0  0  0  0  0  0  0  0  0  0  0
    9.1359   -0.7483    0.0000 C   0  0  0  0  0  0  0  0  0  0  0  0
    9.1282   -2.7483    0.0000 C   0  0  0  0  0  0  0  0  0  0  0  0
    9.9961   -2.2516    0.0000 C   0  0  0  0  0  0  0  0  0  0  0  0
   12.6154    3.2383    0.0000 C   0  0  0  0  0  0  0  0  0  0  0  0
   13.4718    0.7350    0.0000 C   0  0  0  0  0  0  0  0  0  0  0  0
   10.0193    3.7483    0.0000 C   0  0  0  0  0  0  0  0  0  0  0  0
    2.0000   -0.5975    0.0000 H   0  0  0  0  0  0  0  0  0  0  0  0
    1.3800   -1.2175    0.0000 H   0  0  0  0  0  0  0  0  0  0  0  0
    3.0369   -0.0415    0.0000 H   0  0  0  0  0  0  0  0  0  0  0  0
    2.1900    0.1855    0.0000 H   0  0  0  0  0  0  0  0  0  0  0  0
    1.9631   -0.6615    0.0000 H   0  0  0  0  0  0  0  0  0  0  0  0
    2.0000   -1.8375    0.0000 H   0  0  0  0  0  0  0  0  0  0  0  0
    3.8660   -3.3375    0.0000 H   0  0  0  0  0  0  0  0  0  0  0  0
    5.6188   -0.0629    0.0000 H   0  0  0  0  0  0  0  0  0  0  0  0
    7.0678   -0.8846    0.0000 H   0  0  0  0  0  0  0  0  0  0  0  0
    7.3938   -3.3616    0.0000 H   0  0  0  0  0  0  0  0  0  0  0  0
    9.4758    2.0604    0.0000 H   0  0  0  0  0  0  0  0  0  0  0  0
   10.8694   -0.3750    0.0000 H   0  0  0  0  0  0  0  0  0  0  0  0
    8.6040    0.5637    0.0000 H   0  0  0  0  0  0  0  0  0  0  0  0
   10.5319   -2.5637    0.0000 H   0  0  0  0  0  0  0  0  0  0  0  0
   13.2354    3.2359    0.0000 H   0  0  0  0  0  0  0  0  0  0  0  0
   12.6178    3.8583    0.0000 H   0  0  0  0  0  0  0  0  0  0  0  0
   11.9954    3.2407    0.0000 H   0  0  0  0  0  0  0  0  0  0  0  0
   13.7797    0.1968    0.0000 H   0  0  0  0  0  0  0  0  0  0  0  0
   14.0099    1.0429    0.0000 H   0  0  0  0  0  0  0  0  0  0  0  0
   13.1638    1.2731    0.0000 H   0  0  0  0  0  0  0  0  0  0  0  0
   10.3313    4.2840    0.0000 H   0  0  0  0  0  0  0  0  0  0  0  0
    9.4835    4.0604    0.0000 H   0  0  0  0  0  0  0  0  0  0  0  0
    9.7072    3.2126    0.0000 H   0  0  0  0  0  0  0  0  0  0  0  0
  1 30  1  0  0  0  0
  2 13  1  0  0  0  0
  2 17  1  0  0  0  0
  3 14  2  0  0  0  0
  4 26  1  0  0  0  0
  4 33  1  0  0  0  0
  5 27  1  0  0  0  0
  5 34  1  0  0  0  0
  6 28  1  0  0  0  0
  6 32  1  0  0  0  0
  7 14  1  0  0  0  0
  7 18  1  0  0  0  0
  7 41  1  0  0  0  0
  8 18  1  0  0  0  0
  8 20  2  0  0  0  0
  9 20  1  0  0  0  0
  9 22  1  0  0  0  0
  9 44  1  0  0  0  0
 10 23  1  0  0  0  0
 10 29  1  0  0  0  0
 10 47  1  0  0  0  0
 11 22  2  0  0  0  0
 11 29  1  0  0  0  0
 12 29  2  0  0  0  0
 12 31  1  0  0  0  0
 13 14  1  0  0  0  0
 13 15  1  0  0  0  0
 13 16  1  0  0  0  0
 15 35  1  0  0  0  0
 15 36  1  0  0  0  0
 15 40  1  0  0  0  0
 16 37  1  0  0  0  0
 16 38  1  0  0  0  0
 16 39  1  0  0  0  0
 17 18  2  0  0  0  0
 17 19  1  0  0  0  0
 19 21  2  0  0  0  0
 19 42  1  0  0  0  0
 20 21  1  0  0  0  0
 21 43  1  0  0  0  0
 22 30  1  0  0  0  0
 23 24  2  0  0  0  0
 23 25  1  0  0  0  0
 24 27  1  0  0  0  0
 24 45  1  0  0  0  0
 25 26  2  0  0  0  0
 25 46  1  0  0  0  0
 26 28  1  0  0  0  0
 27 28  2  0  0  0  0
 30 31  2  0  0  0  0
 31 48  1  0  0  0  0
 32 49  1  0  0  0  0
 32 50  1  0  0  0  0
 32 51  1  0  0  0  0
 33 52  1  0  0  0  0
 33 53  1  0  0  0  0
 33 54  1  0  0  0  0
 34 55  1  0  0  0  0
 34 56  1  0  0  0  0
 34 57  1  0  0  0  0
M  END
> <PUBCHEM_COMPOUND_CID>
11213558

> <PUBCHEM_COMPOUND_CANONICALIZED>
1

> <PUBCHEM_CACTVS_COMPLEXITY>
691

> <PUBCHEM_CACTVS_HBOND_ACCEPTOR>
11

> <PUBCHEM_CACTVS_HBOND_DONOR>
3

> <PUBCHEM_CACTVS_ROTATABLE_BOND>
7

> <PUBCHEM_CACTVS_SUBSKEYS>
AAADceB7uQAAAAAAAAAAAAAAAAAAAAAAAAA8WLEAAAAAAACx8AAAHwAQAAAADEzBkg4/9pbIFACoADd3dAaCiCkxYqAJ2CF/7JiPL+LE+d+HPCrv1R/a6CewcA8AAEAACgAAQAAAgAAUAACAAAAAAAAAAA==

> <PUBCHEM_IUPAC_OPENEYE_NAME>
6-[[5-fluoro-2-(3,4,5-trimethoxyanilino)pyrimidin-4-yl]amino]-2,2-dimethyl-4H-pyrido[3,2-b][1,4]oxazin-3-one

> <PUBCHEM_IUPAC_CAS_NAME>
6-[[5-fluoro-2-(3,4,5-trimethoxyanilino)-4-pyrimidinyl]amino]-2,2-dimethyl-4H-pyrido[3,2-b][1,4]oxazin-3-one

> <PUBCHEM_IUPAC_NAME>
6-[[5-fluoro-2-(3,4,5-trimethoxyanilino)pyrimidin-4-yl]amino]-2,2-dimethyl-4H-pyrido[3,2-b][1,4]oxazin-3-one

> <PUBCHEM_IUPAC_SYSTEMATIC_NAME>
6-[[5-fluoranyl-2-[(3,4,5-trimethoxyphenyl)amino]pyrimidin-4-yl]amino]-2,2-dimethyl-4H-pyrido[3,2-b][1,4]oxazin-3-one

> <PUBCHEM_IUPAC_TRADITIONAL_NAME>
6-[[5-fluoro-2-(3,4,5-trimethoxyanilino)pyrimidin-4-yl]amino]-2,2-dimethyl-4H-pyrido[3,2-b][1,4]oxazin-3-one

> <PUBCHEM_IUPAC_INCHI>
InChI=1S/C22H23FN6O5/c1-22(2)20(30)28-19-13(34-22)6-7-16(27-19)26-18-12(23)10-24-21(29-18)25-11-8-14(31-3)17(33-5)15(9-11)32-4/h6-10H,1-5H3,(H3,24,25,26,27,28,29,30)

> <PUBCHEM_IUPAC_INCHIKEY>
NHHQJBCNYHBUSI-UHFFFAOYSA-N

> <PUBCHEM_XLOGP3_AA>
3.1

> <PUBCHEM_EXACT_MASS>
470.171396

> <PUBCHEM_MOLECULAR_FORMULA>
C22H23FN6O5

> <PUBCHEM_MOLECULAR_WEIGHT>
470.453623

> <PUBCHEM_OPENEYE_CAN_SMILES>
CC1(C(=O)NC2=C(O1)C=CC(=N2)NC3=NC(=NC=C3F)NC4=CC(=C(C(=C4)OC)OC)OC)C

> <PUBCHEM_OPENEYE_ISO_SMILES>
CC1(C(=O)NC2=C(O1)C=CC(=N2)NC3=NC(=NC=C3F)NC4=CC(=C(C(=C4)OC)OC)OC)C

> <PUBCHEM_CACTVS_TPSA>
129

> <PUBCHEM_MONOISOTOPIC_WEIGHT>
470.171396

> <PUBCHEM_TOTAL_CHARGE>
0

> <PUBCHEM_HEAVY_ATOM_COUNT>
34

> <PUBCHEM_ATOM_DEF_STEREO_COUNT>
0

> <PUBCHEM_ATOM_UDEF_STEREO_COUNT>
0

> <PUBCHEM_BOND_DEF_STEREO_COUNT>
0

> <PUBCHEM_BOND_UDEF_STEREO_COUNT>
0

> <PUBCHEM_ISOTOPIC_ATOM_COUNT>
0

> <PUBCHEM_COMPONENT_COUNT>
1

> <PUBCHEM_CACTVS_TAUTO_COUNT>
56

> <PUBCHEM_COORDINATE_TYPE>
1
3

> <PUBCHEM_BONDANNOTATIONS>
11  22  8
11  29  8
12  29  8
12  31  8
17  18  8
17  19  8
19  21  8
20  21  8
22  30  8
23  24  8
23  25  8
24  27  8
25  26  8
26  28  8
27  28  8
30  31  8
8  18  8
8  20  8

$$$$
11327430
  -OEChem-11121519512D

 49 54  0     0  0  0  0  0  0999 V2000
    4.5274   -0.3089    0.0000 S   0  0  0  0  0  0  0  0  0  0  0  0
   11.3199   -2.2422    0.0000 O   0  0  0  0  0  0  0  0  0  0  0  0
    8.3343   -0.2207    0.0000 O   0  0  0  0  0  0  0  0  0  0  0  0
    9.2614    2.6324    0.0000 O   0  0  0  0  0  0  0  0  0  0  0  0
    9.9816   -0.7560    0.0000 N   0  0  0  0  0  0  0  0  0  0  0  0
    9.6726   -1.7070    0.0000 C   0  0  0  0  0  0  0  0  0  0  0  0
   10.9597   -0.5480    0.0000 C   0  0  0  0  0  0  0  0  0  0  0  0
    9.3125   -0.0128    0.0000 C   0  0  0  0  0  0  0  0  0  0  0  0
   11.6289   -1.2912    0.0000 C   0  0  0  0  0  0  0  0  0  0  0  0
   10.3417   -2.4502    0.0000 C   0  0  0  0  0  0  0  0  0  0  0  0
    6.6498    0.2902    0.0000 C   0  0  0  0  0  0  0  0  0  0  0  0
    7.6652    0.5224    0.0000 C   0  0  0  0  0  0  0  0  0  0  0  0
    6.3518   -0.6644    0.0000 C   0  0  0  0  0  0  0  0  0  0  0  0
    5.3364   -0.8966    0.0000 C   0  0  0  0  0  0  0  0  0  0  0  0
    5.0274   -1.8477    0.0000 C   0  0  0  0  0  0  0  0  0  0  0  0
    7.9742    1.4735    0.0000 C   0  0  0  0  0  0  0  0  0  0  0  0
    4.0274   -1.8477    0.0000 C   0  0  0  0  0  0  0  0  0  0  0  0
    9.6215    0.9382    0.0000 C   0  0  0  0  0  0  0  0  0  0  0  0
    8.9524    1.6814    0.0000 C   0  0  0  0  0  0  0  0  0  0  0  0
    3.7183   -0.8966    0.0000 C   0  0  0  0  0  0  0  0  0  0  0  0
    5.9469    1.0588    0.0000 C   0  0  0  0  0  0  0  0  0  0  0  0
    7.0547   -1.4331    0.0000 C   0  0  0  0  0  0  0  0  0  0  0  0
    5.7123   -2.6324    0.0000 C   0  0  0  0  0  0  0  0  0  0  0  0
    7.2892    2.2582    0.0000 C   0  0  0  0  0  0  0  0  0  0  0  0
    6.7328   -2.4237    0.0000 C   0  0  0  0  0  0  0  0  0  0  0  0
    6.2687    2.0495    0.0000 C   0  0  0  0  0  0  0  0  0  0  0  0
    3.3424   -2.6324    0.0000 C   0  0  0  0  0  0  0  0  0  0  0  0
    2.7029   -0.6644    0.0000 C   0  0  0  0  0  0  0  0  0  0  0  0
    2.3219   -2.4237    0.0000 C   0  0  0  0  0  0  0  0  0  0  0  0
    2.0000   -1.4331    0.0000 C   0  0  0  0  0  0  0  0  0  0  0  0
    9.1252   -1.4159    0.0000 H   0  0  0  0  0  0  0  0  0  0  0  0
    9.2909   -2.1956    0.0000 H   0  0  0  0  0  0  0  0  0  0  0  0
   11.4855   -0.2195    0.0000 H   0  0  0  0  0  0  0  0  0  0  0  0
   10.7275    0.0268    0.0000 H   0  0  0  0  0  0  0  0  0  0  0  0
   12.1763   -1.5823    0.0000 H   0  0  0  0  0  0  0  0  0  0  0  0
   12.0106   -0.8026    0.0000 H   0  0  0  0  0  0  0  0  0  0  0  0
    9.8159   -2.7787    0.0000 H   0  0  0  0  0  0  0  0  0  0  0  0
   10.5740   -3.0250    0.0000 H   0  0  0  0  0  0  0  0  0  0  0  0
   10.2279    1.0672    0.0000 H   0  0  0  0  0  0  0  0  0  0  0  0
    5.3409    0.9276    0.0000 H   0  0  0  0  0  0  0  0  0  0  0  0
    7.6607   -1.3018    0.0000 H   0  0  0  0  0  0  0  0  0  0  0  0
    5.5139   -3.2198    0.0000 H   0  0  0  0  0  0  0  0  0  0  0  0
    7.4876    2.8456    0.0000 H   0  0  0  0  0  0  0  0  0  0  0  0
    7.1459   -2.8861    0.0000 H   0  0  0  0  0  0  0  0  0  0  0  0
    5.8556    2.5118    0.0000 H   0  0  0  0  0  0  0  0  0  0  0  0
    3.5408   -3.2198    0.0000 H   0  0  0  0  0  0  0  0  0  0  0  0
    2.5182   -0.0726    0.0000 H   0  0  0  0  0  0  0  0  0  0  0  0
    1.9088   -2.8861    0.0000 H   0  0  0  0  0  0  0  0  0  0  0  0
    1.3940   -1.3018    0.0000 H   0  0  0  0  0  0  0  0  0  0  0  0
  1 14  1  0  0  0  0
  1 20  1  0  0  0  0
  2  9  1  0  0  0  0
  2 10  1  0  0  0  0
  3  8  1  0  0  0  0
  3 12  1  0  0  0  0
  4 19  2  0  0  0  0
  5  6  1  0  0  0  0
  5  7  1  0  0  0  0
  5  8  1  0  0  0  0
  6 10  1  0  0  0  0
  6 31  1  0  0  0  0
  6 32  1  0  0  0  0
  7  9  1  0  0  0  0
  7 33  1  0  0  0  0
  7 34  1  0  0  0  0
  8 18  2  0  0  0  0
  9 35  1  0  0  0  0
  9 36  1  0  0  0  0
 10 37  1  0  0  0  0
 10 38  1  0  0  0  0
 11 12  1  0  0  0  0
 11 13  1  0  0  0  0
 11 21  2  0  0  0  0
 12 16  2  0  0  0  0
 13 14  1  0  0  0  0
 13 22  2  0  0  0  0
 14 15  2  0  0  0  0
 15 17  1  0  0  0  0
 15 23  1  0  0  0  0
 16 19  1  0  0  0  0
 16 24  1  0  0  0  0
 17 20  1  0  0  0  0
 17 27  2  0  0  0  0
 18 19  1  0  0  0  0
 18 39  1  0  0  0  0
 20 28  2  0  0  0  0
 21 26  1  0  0  0  0
 21 40  1  0  0  0  0
 22 25  1  0  0  0  0
 22 41  1  0  0  0  0
 23 25  2  0  0  0  0
 23 42  1  0  0  0  0
 24 26  2  0  0  0  0
 24 43  1  0  0  0  0
 25 44  1  0  0  0  0
 26 45  1  0  0  0  0
 27 29  1  0  0  0  0
 27 46  1  0  0  0  0
 28 30  1  0  0  0  0
 28 47  1  0  0  0  0
 29 30  2  0  0  0  0
 29 48  1  0  0  0  0
 30 49  1  0  0  0  0
M  END
> <PUBCHEM_COMPOUND_CID>
11327430

> <PUBCHEM_COMPOUND_CANONICALIZED>
1

> <PUBCHEM_CACTVS_COMPLEXITY>
690

> <PUBCHEM_CACTVS_HBOND_ACCEPTOR>
5

> <PUBCHEM_CACTVS_HBOND_DONOR>
0

> <PUBCHEM_CACTVS_ROTATABLE_BOND>
2

> <PUBCHEM_CACTVS_SUBSKEYS>
AAADceB6MABAAAAAAAAAAAAAAAAAASAAAAA8YMECAAAAAEiB/AAAHgQAAAAADATh2AYwB8MABAiMAqBSQAADCIAkKhBIiBkMCMgOJjakNRqLMWAk4BG4qceIyPCOgAACAAAMAAAAAAQAABgAAAAAAAAAAA==

> <PUBCHEM_IUPAC_OPENEYE_NAME>
8-dibenzothiophen-4-yl-2-morpholino-chromen-4-one

> <PUBCHEM_IUPAC_CAS_NAME>
8-(4-dibenzothiophenyl)-2-(4-morpholinyl)-1-benzopyran-4-one

> <PUBCHEM_IUPAC_NAME>
8-dibenzothiophen-4-yl-2-morpholin-4-ylchromen-4-one

> <PUBCHEM_IUPAC_SYSTEMATIC_NAME>
8-dibenzothiophen-4-yl-2-morpholin-4-yl-chromen-4-one

> <PUBCHEM_IUPAC_TRADITIONAL_NAME>
8-dibenzothiophen-4-yl-2-morpholino-chromone

> <PUBCHEM_IUPAC_INCHI>
InChI=1S/C25H19NO3S/c27-21-15-23(26-11-13-28-14-12-26)29-24-17(6-3-9-20(21)24)19-8-4-7-18-16-5-1-2-10-22(16)30-25(18)19/h1-10,15H,11-14H2

> <PUBCHEM_IUPAC_INCHIKEY>
JAMULYFATHSZJM-UHFFFAOYSA-N

> <PUBCHEM_XLOGP3_AA>
5.5

> <PUBCHEM_EXACT_MASS>
413.108564

> <PUBCHEM_MOLECULAR_FORMULA>
C25H19NO3S

> <PUBCHEM_MOLECULAR_WEIGHT>
413.48826

> <PUBCHEM_OPENEYE_CAN_SMILES>
C1COCCN1C2=CC(=O)C3=C(O2)C(=CC=C3)C4=CC=CC5=C4SC6=CC=CC=C56

> <PUBCHEM_OPENEYE_ISO_SMILES>
C1COCCN1C2=CC(=O)C3=C(O2)C(=CC=C3)C4=CC=CC5=C4SC6=CC=CC=C56

> <PUBCHEM_CACTVS_TPSA>
67

> <PUBCHEM_MONOISOTOPIC_WEIGHT>
413.108564

> <PUBCHEM_TOTAL_CHARGE>
0

> <PUBCHEM_HEAVY_ATOM_COUNT>
30

> <PUBCHEM_ATOM_DEF_STEREO_COUNT>
0

> <PUBCHEM_ATOM_UDEF_STEREO_COUNT>
0

> <PUBCHEM_BOND_DEF_STEREO_COUNT>
0

> <PUBCHEM_BOND_UDEF_STEREO_COUNT>
0

> <PUBCHEM_ISOTOPIC_ATOM_COUNT>
0

> <PUBCHEM_COMPONENT_COUNT>
1

> <PUBCHEM_CACTVS_TAUTO_COUNT>
1

> <PUBCHEM_COORDINATE_TYPE>
1
5
255

> <PUBCHEM_BONDANNOTATIONS>
1  14  8
1  20  8
11  12  8
11  21  8
12  16  8
13  14  8
13  22  8
14  15  8
15  17  8
15  23  8
16  19  8
16  24  8
17  20  8
17  27  8
18  19  8
20  28  8
21  26  8
22  25  8
23  25  8
24  26  8
27  29  8
28  30  8
29  30  8
3  12  8
3  8  8
8  18  8

$$$$
11488320
  -OEChem-11121519512D

 58 61  0     0  0  0  0  0  0999 V2000
   13.2399   -3.5272    0.0000 Cl  0  0  0  0  0  0  0  0  0  0  0  0
   11.5195   -2.5072    0.0000 F   0  0  0  0  0  0  0  0  0  0  0  0
    8.0622    0.5272    0.0000 O   0  0  0  0  0  0  0  0  0  0  0  0
    3.7320    1.0272    0.0000 O   0  0  0  0  0  0  0  0  0  0  0  0
    8.0622    2.5272    0.0000 O   0  0  0  0  0  0  0  0  0  0  0  0
    5.4641    2.0272    0.0000 N   0  0  0  0  0  0  0  0  0  0  0  0
    2.8660    2.5272    0.0000 N   0  0  0  0  0  0  0  0  0  0  0  0
   11.5542    2.5619    0.0000 N   0  0  0  0  0  0  0  0  0  0  0  0
   11.5426   -0.5074    0.0000 N   0  0  0  0  0  0  0  0  0  0  0  0
   12.4603    1.0064    0.0000 N   0  0  0  0  0  0  0  0  0  0  0  0
    7.1962    1.0272    0.0000 C   0  0  0  0  0  0  0  0  0  0  0  0
    7.1962    2.0272    0.0000 C   0  0  0  0  0  0  0  0  0  0  0  0
    6.3301    0.5272    0.0000 C   0  0  0  0  0  0  0  0  0  0  0  0
    5.4641    1.0272    0.0000 C   0  0  0  0  0  0  0  0  0  0  0  0
    6.3301    2.5272    0.0000 C   0  0  0  0  0  0  0  0  0  0  0  0
    4.5981    2.5272    0.0000 C   0  0  0  0  0  0  0  0  0  0  0  0
    8.9282    1.0272    0.0000 C   0  0  0  0  0  0  0  0  0  0  0  0
    3.7320    2.0272    0.0000 C   0  0  0  0  0  0  0  0  0  0  0  0
    9.7942    0.5272    0.0000 C   0  0  0  0  0  0  0  0  0  0  0  0
    8.9282    2.0272    0.0000 C   0  0  0  0  0  0  0  0  0  0  0  0
   10.6603    1.0272    0.0000 C   0  0  0  0  0  0  0  0  0  0  0  0
    9.7942    2.5272    0.0000 C   0  0  0  0  0  0  0  0  0  0  0  0
   10.6603    2.0272    0.0000 C   0  0  0  0  0  0  0  0  0  0  0  0
   11.5542    0.4926    0.0000 C   0  0  0  0  0  0  0  0  0  0  0  0
    2.0000    2.0272    0.0000 C   0  0  0  0  0  0  0  0  0  0  0  0
   12.4603    2.0480    0.0000 C   0  0  0  0  0  0  0  0  0  0  0  0
    8.0622    3.5272    0.0000 C   0  0  0  0  0  0  0  0  0  0  0  0
   12.4028   -1.0174    0.0000 C   0  0  0  0  0  0  0  0  0  0  0  0
   12.3913   -2.0173    0.0000 C   0  0  0  0  0  0  0  0  0  0  0  0
   13.2746   -0.5274    0.0000 C   0  0  0  0  0  0  0  0  0  0  0  0
   13.2514   -2.5273    0.0000 C   0  0  0  0  0  0  0  0  0  0  0  0
   14.1348   -1.0374    0.0000 C   0  0  0  0  0  0  0  0  0  0  0  0
   14.1232   -2.0373    0.0000 C   0  0  0  0  0  0  0  0  0  0  0  0
    7.7331    1.3372    0.0000 H   0  0  0  0  0  0  0  0  0  0  0  0
    5.9316    0.0523    0.0000 H   0  0  0  0  0  0  0  0  0  0  0  0
    6.7287    0.0523    0.0000 H   0  0  0  0  0  0  0  0  0  0  0  0
    7.8067    1.9196    0.0000 H   0  0  0  0  0  0  0  0  0  0  0  0
    7.4082    2.6098    0.0000 H   0  0  0  0  0  0  0  0  0  0  0  0
    4.8535    1.1349    0.0000 H   0  0  0  0  0  0  0  0  0  0  0  0
    5.2520    0.4446    0.0000 H   0  0  0  0  0  0  0  0  0  0  0  0
    6.7287    3.0022    0.0000 H   0  0  0  0  0  0  0  0  0  0  0  0
    5.9316    3.0022    0.0000 H   0  0  0  0  0  0  0  0  0  0  0  0
    4.9966    3.0022    0.0000 H   0  0  0  0  0  0  0  0  0  0  0  0
    4.1996    3.0022    0.0000 H   0  0  0  0  0  0  0  0  0  0  0  0
    9.7942   -0.0928    0.0000 H   0  0  0  0  0  0  0  0  0  0  0  0
    2.8660    3.1472    0.0000 H   0  0  0  0  0  0  0  0  0  0  0  0
    9.7942    3.1472    0.0000 H   0  0  0  0  0  0  0  0  0  0  0  0
    1.6900    2.5642    0.0000 H   0  0  0  0  0  0  0  0  0  0  0  0
    1.4631    1.7172    0.0000 H   0  0  0  0  0  0  0  0  0  0  0  0
    2.3100    1.4903    0.0000 H   0  0  0  0  0  0  0  0  0  0  0  0
   11.0021   -0.8112    0.0000 H   0  0  0  0  0  0  0  0  0  0  0  0
   12.9960    2.3601    0.0000 H   0  0  0  0  0  0  0  0  0  0  0  0
    8.6822    3.5272    0.0000 H   0  0  0  0  0  0  0  0  0  0  0  0
    8.0622    4.1472    0.0000 H   0  0  0  0  0  0  0  0  0  0  0  0
    7.4422    3.5272    0.0000 H   0  0  0  0  0  0  0  0  0  0  0  0
   13.2817    0.0925    0.0000 H   0  0  0  0  0  0  0  0  0  0  0  0
   14.6752   -0.7336    0.0000 H   0  0  0  0  0  0  0  0  0  0  0  0
   14.6565   -2.3535    0.0000 H   0  0  0  0  0  0  0  0  0  0  0  0
  1 31  1  0  0  0  0
  2 29  1  0  0  0  0
  3 11  1  0  0  0  0
  3 17  1  0  0  0  0
  4 18  2  0  0  0  0
  5 20  1  0  0  0  0
  5 27  1  0  0  0  0
  6 14  1  0  0  0  0
  6 15  1  0  0  0  0
  6 16  1  0  0  0  0
  7 18  1  0  0  0  0
  7 25  1  0  0  0  0
  7 46  1  0  0  0  0
  8 23  1  0  0  0  0
  8 26  2  0  0  0  0
  9 24  1  0  0  0  0
  9 28  1  0  0  0  0
  9 51  1  0  0  0  0
 10 24  2  0  0  0  0
 10 26  1  0  0  0  0
 11 12  1  0  0  0  0
 11 13  1  0  0  0  0
 11 34  1  0  0  0  0
 12 15  1  0  0  0  0
 12 37  1  0  0  0  0
 12 38  1  0  0  0  0
 13 14  1  0  0  0  0
 13 35  1  0  0  0  0
 13 36  1  0  0  0  0
 14 39  1  0  0  0  0
 14 40  1  0  0  0  0
 15 41  1  0  0  0  0
 15 42  1  0  0  0  0
 16 18  1  0  0  0  0
 16 43  1  0  0  0  0
 16 44  1  0  0  0  0
 17 19  1  0  0  0  0
 17 20  2  0  0  0  0
 19 21  2  0  0  0  0
 19 45  1  0  0  0  0
 20 22  1  0  0  0  0
 21 23  1  0  0  0  0
 21 24  1  0  0  0  0
 22 23  2  0  0  0  0
 22 47  1  0  0  0  0
 25 48  1  0  0  0  0
 25 49  1  0  0  0  0
 25 50  1  0  0  0  0
 26 52  1  0  0  0  0
 27 53  1  0  0  0  0
 27 54  1  0  0  0  0
 27 55  1  0  0  0  0
 28 29  2  0  0  0  0
 28 30  1  0  0  0  0
 29 31  1  0  0  0  0
 30 32  2  0  0  0  0
 30 56  1  0  0  0  0
 31 33  2  0  0  0  0
 32 33  1  0  0  0  0
 32 57  1  0  0  0  0
 33 58  1  0  0  0  0
M  END
> <PUBCHEM_COMPOUND_CID>
11488320

> <PUBCHEM_COMPOUND_CANONICALIZED>
1

> <PUBCHEM_CACTVS_COMPLEXITY>
641

> <PUBCHEM_CACTVS_HBOND_ACCEPTOR>
8

> <PUBCHEM_CACTVS_HBOND_DONOR>
2

> <PUBCHEM_CACTVS_ROTATABLE_BOND>
7

> <PUBCHEM_CACTVS_SUBSKEYS>
AAADceB7sQAEAAAAAAAAAAAAAAAAAAAAAAA8eIEAAAAAAACx9AAAHwIQAAAADB7hni439vfIFACoAydzdACCiCkxJ6AJ2KC+7piNbuLF+/uWPCru0hvK6Cew0BMOIEABAgICQABAgAIEBASAAAAAAAAAAA==

> <PUBCHEM_IUPAC_OPENEYE_NAME>
2-[4-[4-(3-chloro-2-fluoro-anilino)-7-methoxy-quinazolin-6-yl]oxy-1-piperidyl]-N-methyl-acetamide

> <PUBCHEM_IUPAC_CAS_NAME>
2-[4-[[4-(3-chloro-2-fluoroanilino)-7-methoxy-6-quinazolinyl]oxy]-1-piperidinyl]-N-methylacetamide

> <PUBCHEM_IUPAC_NAME>
2-[4-[4-(3-chloro-2-fluoroanilino)-7-methoxyquinazolin-6-yl]oxypiperidin-1-yl]-N-methylacetamide

> <PUBCHEM_IUPAC_SYSTEMATIC_NAME>
2-[4-[4-[(3-chloranyl-2-fluoranyl-phenyl)amino]-7-methoxy-quinazolin-6-yl]oxypiperidin-1-yl]-N-methyl-ethanamide

> <PUBCHEM_IUPAC_TRADITIONAL_NAME>
2-[4-[4-(3-chloro-2-fluoro-anilino)-7-methoxy-quinazolin-6-yl]oxypiperidino]-N-methyl-acetamide

> <PUBCHEM_IUPAC_INCHI>
InChI=1S/C23H25ClFN5O3/c1-26-21(31)12-30-8-6-14(7-9-30)33-20-10-15-18(11-19(20)32-2)27-13-28-23(15)29-17-5-3-4-16(24)22(17)25/h3-5,10-11,13-14H,6-9,12H2,1-2H3,(H,26,31)(H,27,28,29)

> <PUBCHEM_IUPAC_INCHIKEY>
DFJSJLGUIXFDJP-UHFFFAOYSA-N

> <PUBCHEM_XLOGP3_AA>
4

> <PUBCHEM_EXACT_MASS>
473.162996

> <PUBCHEM_MOLECULAR_FORMULA>
C23H25ClFN5O3

> <PUBCHEM_MOLECULAR_WEIGHT>
473.927703

> <PUBCHEM_OPENEYE_CAN_SMILES>
CNC(=O)CN1CCC(CC1)OC2=C(C=C3C(=C2)C(=NC=N3)NC4=C(C(=CC=C4)Cl)F)OC

> <PUBCHEM_OPENEYE_ISO_SMILES>
CNC(=O)CN1CCC(CC1)OC2=C(C=C3C(=C2)C(=NC=N3)NC4=C(C(=CC=C4)Cl)F)OC

> <PUBCHEM_CACTVS_TPSA>
88.6

> <PUBCHEM_MONOISOTOPIC_WEIGHT>
473.162996

> <PUBCHEM_TOTAL_CHARGE>
0

> <PUBCHEM_HEAVY_ATOM_COUNT>
33

> <PUBCHEM_ATOM_DEF_STEREO_COUNT>
0

> <PUBCHEM_ATOM_UDEF_STEREO_COUNT>
0

> <PUBCHEM_BOND_DEF_STEREO_COUNT>
0

> <PUBCHEM_BOND_UDEF_STEREO_COUNT>
0

> <PUBCHEM_ISOTOPIC_ATOM_COUNT>
0

> <PUBCHEM_COMPONENT_COUNT>
1

> <PUBCHEM_CACTVS_TAUTO_COUNT>
6

> <PUBCHEM_COORDINATE_TYPE>
1
5
255

> <PUBCHEM_BONDANNOTATIONS>
10  24  8
10  26  8
17  19  8
17  20  8
19  21  8
20  22  8
21  23  8
21  24  8
22  23  8
28  29  8
28  30  8
29  31  8
30  32  8
31  33  8
32  33  8
8  23  8
8  26  8

$$$$
11494412
  -OEChem-11121519512D

 47 52  0     1  0  0  0  0  0999 V2000
    7.0848   -0.8369    0.0000 O   0  0  0  0  0  0  0  0  0  0  0  0
    5.9264    2.4871    0.0000 O   0  0  0  0  0  0  0  0  0  0  0  0
    3.5149   -1.7727    0.0000 N   0  0  0  0  0  0  0  0  0  0  0  0
    6.7689    0.9168    0.0000 N   0  0  0  0  0  0  0  0  0  0  0  0
    2.5848    1.1345    0.0000 N   0  0  0  0  0  0  0  0  0  0  0  0
    5.4803   -0.0617    0.0000 C   0  0  2  0  0  0  0  0  0  0  0  0
    5.1512    0.8826    0.0000 C   0  0  2  0  0  0  0  0  0  0  0  0
    4.9097   -0.8830    0.0000 C   0  0  0  0  0  0  0  0  0  0  0  0
    4.4088   -2.3073    0.0000 C   0  0  0  0  0  0  0  0  0  0  0  0
    5.2749   -1.8073    0.0000 C   0  0  0  0  0  0  0  0  0  0  0  0
    3.9161   -0.8634    0.0000 C   0  0  0  0  0  0  0  0  0  0  0  0
    2.6088   -2.2865    0.0000 C   0  0  0  0  0  0  0  0  0  0  0  0
    4.4088   -3.3073    0.0000 C   0  0  0  0  0  0  0  0  0  0  0  0
    4.1938    1.1714    0.0000 C   0  0  0  0  0  0  0  0  0  0  0  0
    2.6088   -3.3281    0.0000 C   0  0  0  0  0  0  0  0  0  0  0  0
    3.5149   -3.8420    0.0000 C   0  0  0  0  0  0  0  0  0  0  0  0
    6.4800   -0.0405    0.0000 C   0  0  0  0  0  0  0  0  0  0  0  0
    5.9476    1.4874    0.0000 C   0  0  0  0  0  0  0  0  0  0  0  0
    6.1409   -2.3073    0.0000 C   0  0  0  0  0  0  0  0  0  0  0  0
    3.8675    2.1104    0.0000 C   0  0  0  0  0  0  0  0  0  0  0  0
    5.2749   -3.8073    0.0000 C   0  0  0  0  0  0  0  0  0  0  0  0
    3.4026    0.5695    0.0000 C   0  0  0  0  0  0  0  0  0  0  0  0
    6.1409   -3.3073    0.0000 C   0  0  0  0  0  0  0  0  0  0  0  0
    2.8677    2.0875    0.0000 C   0  0  0  0  0  0  0  0  0  0  0  0
    4.3475    2.9876    0.0000 C   0  0  0  0  0  0  0  0  0  0  0  0
    2.3480    2.9418    0.0000 C   0  0  0  0  0  0  0  0  0  0  0  0
    3.8278    3.8420    0.0000 C   0  0  0  0  0  0  0  0  0  0  0  0
    2.8281    3.8191    0.0000 C   0  0  0  0  0  0  0  0  0  0  0  0
    4.6381    0.0534    0.0000 H   0  0  0  0  0  0  0  0  0  0  0  0
    4.5630    0.2689    0.0000 H   0  0  0  0  0  0  0  0  0  0  0  0
    3.5827   -0.3407    0.0000 H   0  0  0  0  0  0  0  0  0  0  0  0
    2.3998   -1.7028    0.0000 H   0  0  0  0  0  0  0  0  0  0  0  0
    1.9980   -2.3926    0.0000 H   0  0  0  0  0  0  0  0  0  0  0  0
    1.9980   -3.2220    0.0000 H   0  0  0  0  0  0  0  0  0  0  0  0
    2.3998   -3.9118    0.0000 H   0  0  0  0  0  0  0  0  0  0  0  0
    3.1213   -4.3210    0.0000 H   0  0  0  0  0  0  0  0  0  0  0  0
    3.9195   -4.3118    0.0000 H   0  0  0  0  0  0  0  0  0  0  0  0
    7.3543    1.1209    0.0000 H   0  0  0  0  0  0  0  0  0  0  0  0
    6.6778   -1.9973    0.0000 H   0  0  0  0  0  0  0  0  0  0  0  0
    5.2749   -4.4273    0.0000 H   0  0  0  0  0  0  0  0  0  0  0  0
    3.4168   -0.0503    0.0000 H   0  0  0  0  0  0  0  0  0  0  0  0
    6.6778   -3.6173    0.0000 H   0  0  0  0  0  0  0  0  0  0  0  0
    2.0000    0.9285    0.0000 H   0  0  0  0  0  0  0  0  0  0  0  0
    4.9674    3.0018    0.0000 H   0  0  0  0  0  0  0  0  0  0  0  0
    1.7282    2.9276    0.0000 H   0  0  0  0  0  0  0  0  0  0  0  0
    4.1254    4.3859    0.0000 H   0  0  0  0  0  0  0  0  0  0  0  0
    2.5059    4.3488    0.0000 H   0  0  0  0  0  0  0  0  0  0  0  0
  1 17  2  0  0  0  0
  2 18  2  0  0  0  0
  3  9  1  0  0  0  0
  3 11  1  0  0  0  0
  3 12  1  0  0  0  0
  4 17  1  0  0  0  0
  4 18  1  0  0  0  0
  4 38  1  0  0  0  0
  5 22  1  0  0  0  0
  5 24  1  0  0  0  0
  5 43  1  0  0  0  0
  6  7  1  0  0  0  0
  6  8  1  0  0  0  0
  6 17  1  0  0  0  0
  6 29  1  6  0  0  0
  7 14  1  0  0  0  0
  7 18  1  0  0  0  0
  7 30  1  1  0  0  0
  8 10  1  0  0  0  0
  8 11  2  0  0  0  0
  9 10  1  0  0  0  0
  9 13  2  0  0  0  0
 10 19  2  0  0  0  0
 11 31  1  0  0  0  0
 12 15  1  0  0  0  0
 12 32  1  0  0  0  0
 12 33  1  0  0  0  0
 13 16  1  0  0  0  0
 13 21  1  0  0  0  0
 14 20  1  0  0  0  0
 14 22  2  0  0  0  0
 15 16  1  0  0  0  0
 15 34  1  0  0  0  0
 15 35  1  0  0  0  0
 16 36  1  0  0  0  0
 16 37  1  0  0  0  0
 19 23  1  0  0  0  0
 19 39  1  0  0  0  0
 20 24  1  0  0  0  0
 20 25  2  0  0  0  0
 21 23  2  0  0  0  0
 21 40  1  0  0  0  0
 22 41  1  0  0  0  0
 23 42  1  0  0  0  0
 24 26  2  0  0  0  0
 25 27  1  0  0  0  0
 25 44  1  0  0  0  0
 26 28  1  0  0  0  0
 26 45  1  0  0  0  0
 27 28  2  0  0  0  0
 27 46  1  0  0  0  0
 28 47  1  0  0  0  0
M  END
> <PUBCHEM_COMPOUND_CID>
11494412

> <PUBCHEM_COMPOUND_CANONICALIZED>
1

> <PUBCHEM_CACTVS_COMPLEXITY>
666

> <PUBCHEM_CACTVS_HBOND_ACCEPTOR>
2

> <PUBCHEM_CACTVS_HBOND_DONOR>
2

> <PUBCHEM_CACTVS_ROTATABLE_BOND>
2

> <PUBCHEM_CACTVS_SUBSKEYS>
AAADceB7MAAAAAAAAAAAAAAAAAAAAWLFgAA8YIAAAAAAAFix/gAAHgAQAAAADQjBngQ8wPPNkACoAzV3VACCgCAxAiAI2aE4ZJgIIPLAlZGEIAhglCDIyAcdicCegAACAAACAAAAAAQAAAQAAAAAAAAAAA==

> <PUBCHEM_IUPAC_INCHI>
InChI=1S/C23H19N3O2/c27-22-19(16-11-24-18-9-2-1-7-14(16)18)20(23(28)25-22)17-12-26-10-4-6-13-5-3-8-15(17)21(13)26/h1-3,5,7-9,11-12,19-20,24H,4,6,10H2,(H,25,27,28)/t19-,20-/m0/s1

> <PUBCHEM_IUPAC_INCHIKEY>
UCEQXRCJXIVODC-PMACEKPBSA-N

> <PUBCHEM_XLOGP3_AA>
2.9

> <PUBCHEM_EXACT_MASS>
369.147727

> <PUBCHEM_MOLECULAR_FORMULA>
C23H19N3O2

> <PUBCHEM_MOLECULAR_WEIGHT>
369.41586

> <PUBCHEM_OPENEYE_CAN_SMILES>
C1CC2=CC=CC3=C2N(C1)C=C3C4C(C(=O)NC4=O)C5=CNC6=CC=CC=C65

> <PUBCHEM_OPENEYE_ISO_SMILES>
C1CC2=CC=CC3=C2N(C1)C=C3[C@H]4[C@@H](C(=O)NC4=O)C5=CNC6=CC=CC=C65

> <PUBCHEM_CACTVS_TPSA>
66.9

> <PUBCHEM_MONOISOTOPIC_WEIGHT>
369.147727

> <PUBCHEM_TOTAL_CHARGE>
0

> <PUBCHEM_HEAVY_ATOM_COUNT>
28

> <PUBCHEM_ATOM_DEF_STEREO_COUNT>
2

> <PUBCHEM_ATOM_UDEF_STEREO_COUNT>
0

> <PUBCHEM_BOND_DEF_STEREO_COUNT>
0

> <PUBCHEM_BOND_UDEF_STEREO_COUNT>
0

> <PUBCHEM_ISOTOPIC_ATOM_COUNT>
0

> <PUBCHEM_COMPONENT_COUNT>
1

> <PUBCHEM_CACTVS_TAUTO_COUNT>
8

> <PUBCHEM_COORDINATE_TYPE>
1
5
255

> <PUBCHEM_BONDANNOTATIONS>
10  19  8
13  21  8
14  20  8
14  22  8
19  23  8
20  24  8
20  25  8
21  23  8
24  26  8
25  27  8
26  28  8
27  28  8
3  11  8
3  9  8
5  22  8
5  24  8
6  29  6
7  30  5
8  10  8
8  11  8
9  10  8
9  13  8

$$$$
11556711
  -OEChem-11121519512D

109112  0     1  0  0  0  0  0999 V2000
    4.9641    6.4330    0.0000 O   0  0  0  0  0  0  0  0  0  0  0  0
    6.3301    4.0670    0.0000 O   0  0  0  0  0  0  0  0  0  0  0  0
    6.3301    3.0670    0.0000 O   0  0  0  0  0  0  0  0  0  0  0  0
    7.1962    2.5670    0.0000 O   0  0  0  0  0  0  0  0  0  0  0  0
   10.6603   -6.4330    0.0000 O   0  0  0  0  0  0  0  0  0  0  0  0
    9.7942    0.0670    0.0000 O   0  0  0  0  0  0  0  0  0  0  0  0
    8.9282   -3.4330    0.0000 O   0  0  0  0  0  0  0  0  0  0  0  0
    4.5981    3.0670    0.0000 N   0  0  0  0  0  0  0  0  0  0  0  0
    6.3301    1.0670    0.0000 N   0  0  0  0  0  0  0  0  0  0  0  0
    8.0622    0.0670    0.0000 N   0  0  0  0  0  0  0  0  0  0  0  0
    9.7942   -1.9330    0.0000 N   0  0  0  0  0  0  0  0  0  0  0  0
   10.6603   -4.4330    0.0000 N   0  0  0  0  0  0  0  0  0  0  0  0
    5.4641    5.5670    0.0000 C   0  0  2  0  0  0  0  0  0  0  0  0
    4.4641    5.5670    0.0000 C   0  0  0  0  0  0  0  0  0  0  0  0
    4.5981    4.0670    0.0000 C   0  0  2  0  0  0  0  0  0  0  0  0
    5.4641    4.5670    0.0000 C   0  0  0  0  0  0  0  0  0  0  0  0
    6.3301    6.0670    0.0000 C   0  0  0  0  0  0  0  0  0  0  0  0
    3.7320    4.5670    0.0000 C   0  0  0  0  0  0  0  0  0  0  0  0
    2.8660    4.0670    0.0000 C   0  0  0  0  0  0  0  0  0  0  0  0
    5.4641    2.5670    0.0000 C   0  0  0  0  0  0  0  0  0  0  0  0
    5.4641    1.5670    0.0000 C   0  0  2  0  0  0  0  0  0  0  0  0
    2.0000    4.5670    0.0000 C   0  0  0  0  0  0  0  0  0  0  0  0
    2.8660    3.0670    0.0000 C   0  0  0  0  0  0  0  0  0  0  0  0
    4.5981    1.0670    0.0000 C   0  0  0  0  0  0  0  0  0  0  0  0
    8.0622    1.0670    0.0000 C   0  0  1  0  0  0  0  0  0  0  0  0
    8.9282    1.5670    0.0000 C   0  0  0  0  0  0  0  0  0  0  0  0
    7.1962    1.5670    0.0000 C   0  0  0  0  0  0  0  0  0  0  0  0
    8.9282    2.5670    0.0000 C   0  0  0  0  0  0  0  0  0  0  0  0
    4.5981    0.0670    0.0000 C   0  0  0  0  0  0  0  0  0  0  0  0
    8.9282   -1.4330    0.0000 C   0  0  2  0  0  0  0  0  0  0  0  0
    8.9282   -0.4330    0.0000 C   0  0  0  0  0  0  0  0  0  0  0  0
    8.0622   -1.9330    0.0000 C   0  0  0  0  0  0  0  0  0  0  0  0
    9.7942    3.0670    0.0000 C   0  0  0  0  0  0  0  0  0  0  0  0
    8.0622    3.0670    0.0000 C   0  0  0  0  0  0  0  0  0  0  0  0
    8.0622   -2.9330    0.0000 C   0  0  0  0  0  0  0  0  0  0  0  0
   10.6603   -3.4330    0.0000 C   0  0  0  0  0  0  0  0  0  0  0  0
    3.7320   -0.4330    0.0000 C   0  0  0  0  0  0  0  0  0  0  0  0
    5.4641   -0.4330    0.0000 C   0  0  0  0  0  0  0  0  0  0  0  0
    9.7942   -4.9330    0.0000 C   0  0  0  0  0  0  0  0  0  0  0  0
   11.5263   -4.9330    0.0000 C   0  0  0  0  0  0  0  0  0  0  0  0
    9.7942   -2.9330    0.0000 C   0  0  0  0  0  0  0  0  0  0  0  0
    9.7942   -5.9330    0.0000 C   0  0  0  0  0  0  0  0  0  0  0  0
   11.5263   -5.9330    0.0000 C   0  0  0  0  0  0  0  0  0  0  0  0
    7.1962   -3.4330    0.0000 C   0  0  0  0  0  0  0  0  0  0  0  0
    3.7320   -1.4330    0.0000 C   0  0  0  0  0  0  0  0  0  0  0  0
    5.4641   -1.4330    0.0000 C   0  0  0  0  0  0  0  0  0  0  0  0
    4.5981   -1.9330    0.0000 C   0  0  0  0  0  0  0  0  0  0  0  0
    7.1962   -4.4330    0.0000 C   0  0  0  0  0  0  0  0  0  0  0  0
    6.3301   -2.9330    0.0000 C   0  0  0  0  0  0  0  0  0  0  0  0
    6.3301   -4.9330    0.0000 C   0  0  0  0  0  0  0  0  0  0  0  0
    5.4641   -3.4330    0.0000 C   0  0  0  0  0  0  0  0  0  0  0  0
    5.4641   -4.4330    0.0000 C   0  0  0  0  0  0  0  0  0  0  0  0
    3.8815    5.7790    0.0000 H   0  0  0  0  0  0  0  0  0  0  0  0
    4.3564    4.9564    0.0000 H   0  0  0  0  0  0  0  0  0  0  0  0
    5.1350    3.7570    0.0000 H   0  0  0  0  0  0  0  0  0  0  0  0
    6.6401    5.5300    0.0000 H   0  0  0  0  0  0  0  0  0  0  0  0
    6.8671    6.3770    0.0000 H   0  0  0  0  0  0  0  0  0  0  0  0
    6.0201    6.6039    0.0000 H   0  0  0  0  0  0  0  0  0  0  0  0
    4.1306    5.0419    0.0000 H   0  0  0  0  0  0  0  0  0  0  0  0
    3.3335    5.0419    0.0000 H   0  0  0  0  0  0  0  0  0  0  0  0
    2.8660    4.6870    0.0000 H   0  0  0  0  0  0  0  0  0  0  0  0
    4.0611    2.7570    0.0000 H   0  0  0  0  0  0  0  0  0  0  0  0
    5.4641    0.9470    0.0000 H   0  0  0  0  0  0  0  0  0  0  0  0
    2.3100    5.1039    0.0000 H   0  0  0  0  0  0  0  0  0  0  0  0
    1.4631    4.8770    0.0000 H   0  0  0  0  0  0  0  0  0  0  0  0
    1.6900    4.0300    0.0000 H   0  0  0  0  0  0  0  0  0  0  0  0
    2.2460    3.0670    0.0000 H   0  0  0  0  0  0  0  0  0  0  0  0
    2.8660    2.4470    0.0000 H   0  0  0  0  0  0  0  0  0  0  0  0
    3.4860    3.0670    0.0000 H   0  0  0  0  0  0  0  0  0  0  0  0
    7.5252    0.7570    0.0000 H   0  0  0  0  0  0  0  0  0  0  0  0
    4.3860    1.6496    0.0000 H   0  0  0  0  0  0  0  0  0  0  0  0
    3.9875    0.9593    0.0000 H   0  0  0  0  0  0  0  0  0  0  0  0
    6.3301    0.4470    0.0000 H   0  0  0  0  0  0  0  0  0  0  0  0
    9.1403    0.9844    0.0000 H   0  0  0  0  0  0  0  0  0  0  0  0
    9.5388    1.6746    0.0000 H   0  0  0  0  0  0  0  0  0  0  0  0
    9.4651    2.2570    0.0000 H   0  0  0  0  0  0  0  0  0  0  0  0
    7.5252   -0.2430    0.0000 H   0  0  0  0  0  0  0  0  0  0  0  0
    9.4651   -1.1230    0.0000 H   0  0  0  0  0  0  0  0  0  0  0  0
    7.8501   -1.3504    0.0000 H   0  0  0  0  0  0  0  0  0  0  0  0
    7.4516   -2.0407    0.0000 H   0  0  0  0  0  0  0  0  0  0  0  0
   10.1042    2.5300    0.0000 H   0  0  0  0  0  0  0  0  0  0  0  0
   10.3312    3.3770    0.0000 H   0  0  0  0  0  0  0  0  0  0  0  0
    9.4842    3.6039    0.0000 H   0  0  0  0  0  0  0  0  0  0  0  0
    8.3722    3.6039    0.0000 H   0  0  0  0  0  0  0  0  0  0  0  0
    7.5252    3.3770    0.0000 H   0  0  0  0  0  0  0  0  0  0  0  0
    7.7522    2.5300    0.0000 H   0  0  0  0  0  0  0  0  0  0  0  0
   10.3312   -1.6230    0.0000 H   0  0  0  0  0  0  0  0  0  0  0  0
    8.2742   -3.5156    0.0000 H   0  0  0  0  0  0  0  0  0  0  0  0
    8.6728   -2.8253    0.0000 H   0  0  0  0  0  0  0  0  0  0  0  0
   11.2708   -3.5407    0.0000 H   0  0  0  0  0  0  0  0  0  0  0  0
   10.8723   -2.8504    0.0000 H   0  0  0  0  0  0  0  0  0  0  0  0
    3.1951   -0.1230    0.0000 H   0  0  0  0  0  0  0  0  0  0  0  0
    6.0010   -0.1230    0.0000 H   0  0  0  0  0  0  0  0  0  0  0  0
   12.1369   -5.0407    0.0000 H   0  0  0  0  0  0  0  0  0  0  0  0
   11.7383   -4.3504    0.0000 H   0  0  0  0  0  0  0  0  0  0  0  0
    9.5822   -4.3504    0.0000 H   0  0  0  0  0  0  0  0  0  0  0  0
    9.1836   -5.0407    0.0000 H   0  0  0  0  0  0  0  0  0  0  0  0
    9.1836   -5.8254    0.0000 H   0  0  0  0  0  0  0  0  0  0  0  0
    9.5822   -6.5156    0.0000 H   0  0  0  0  0  0  0  0  0  0  0  0
   11.7383   -6.5156    0.0000 H   0  0  0  0  0  0  0  0  0  0  0  0
   12.1369   -5.8254    0.0000 H   0  0  0  0  0  0  0  0  0  0  0  0
    3.1951   -1.7430    0.0000 H   0  0  0  0  0  0  0  0  0  0  0  0
    6.0010   -1.7430    0.0000 H   0  0  0  0  0  0  0  0  0  0  0  0
    4.5981   -2.5530    0.0000 H   0  0  0  0  0  0  0  0  0  0  0  0
    7.7331   -4.7430    0.0000 H   0  0  0  0  0  0  0  0  0  0  0  0
    6.3301   -2.3130    0.0000 H   0  0  0  0  0  0  0  0  0  0  0  0
    6.3301   -5.5530    0.0000 H   0  0  0  0  0  0  0  0  0  0  0  0
    4.9272   -3.1230    0.0000 H   0  0  0  0  0  0  0  0  0  0  0  0
    4.9272   -4.7430    0.0000 H   0  0  0  0  0  0  0  0  0  0  0  0
  1 13  1  0  0  0  0
  1 14  1  0  0  0  0
  2 16  2  0  0  0  0
  3 20  2  0  0  0  0
  4 27  2  0  0  0  0
  5 42  1  0  0  0  0
  5 43  1  0  0  0  0
  6 31  2  0  0  0  0
  7 41  2  0  0  0  0
 15  8  1  1  0  0  0
  8 20  1  0  0  0  0
  8 62  1  0  0  0  0
 21  9  1  1  0  0  0
  9 27  1  0  0  0  0
  9 73  1  0  0  0  0
 25 10  1  6  0  0  0
 10 31  1  0  0  0  0
 10 77  1  0  0  0  0
 30 11  1  1  0  0  0
 11 41  1  0  0  0  0
 11 87  1  0  0  0  0
 12 36  1  0  0  0  0
 12 39  1  0  0  0  0
 12 40  1  0  0  0  0
 13 14  1  0  0  0  0
 13 16  1  0  0  0  0
 13 17  1  6  0  0  0
 14 53  1  0  0  0  0
 14 54  1  0  0  0  0
 15 16  1  0  0  0  0
 15 18  1  0  0  0  0
 15 55  1  0  0  0  0
 17 56  1  0  0  0  0
 17 57  1  0  0  0  0
 17 58  1  0  0  0  0
 18 19  1  0  0  0  0
 18 59  1  0  0  0  0
 18 60  1  0  0  0  0
 19 22  1  0  0  0  0
 19 23  1  0  0  0  0
 19 61  1  0  0  0  0
 20 21  1  0  0  0  0
 21 24  1  0  0  0  0
 21 63  1  0  0  0  0
 22 64  1  0  0  0  0
 22 65  1  0  0  0  0
 22 66  1  0  0  0  0
 23 67  1  0  0  0  0
 23 68  1  0  0  0  0
 23 69  1  0  0  0  0
 24 29  1  0  0  0  0
 24 71  1  0  0  0  0
 24 72  1  0  0  0  0
 25 26  1  0  0  0  0
 25 27  1  0  0  0  0
 25 70  1  0  0  0  0
 26 28  1  0  0  0  0
 26 74  1  0  0  0  0
 26 75  1  0  0  0  0
 28 33  1  0  0  0  0
 28 34  1  0  0  0  0
 28 76  1  0  0  0  0
 29 37  2  0  0  0  0
 29 38  1  0  0  0  0
 30 31  1  0  0  0  0
 30 32  1  0  0  0  0
 30 78  1  0  0  0  0
 32 35  1  0  0  0  0
 32 79  1  0  0  0  0
 32 80  1  0  0  0  0
 33 81  1  0  0  0  0
 33 82  1  0  0  0  0
 33 83  1  0  0  0  0
 34 84  1  0  0  0  0
 34 85  1  0  0  0  0
 34 86  1  0  0  0  0
 35 44  1  0  0  0  0
 35 88  1  0  0  0  0
 35 89  1  0  0  0  0
 36 41  1  0  0  0  0
 36 90  1  0  0  0  0
 36 91  1  0  0  0  0
 37 45  1  0  0  0  0
 37 92  1  0  0  0  0
 38 46  2  0  0  0  0
 38 93  1  0  0  0  0
 39 42  1  0  0  0  0
 39 96  1  0  0  0  0
 39 97  1  0  0  0  0
 40 43  1  0  0  0  0
 40 94  1  0  0  0  0
 40 95  1  0  0  0  0
 42 98  1  0  0  0  0
 42 99  1  0  0  0  0
 43100  1  0  0  0  0
 43101  1  0  0  0  0
 44 48  2  0  0  0  0
 44 49  1  0  0  0  0
 45 47  2  0  0  0  0
 45102  1  0  0  0  0
 46 47  1  0  0  0  0
 46103  1  0  0  0  0
 47104  1  0  0  0  0
 48 50  1  0  0  0  0
 48105  1  0  0  0  0
 49 51  2  0  0  0  0
 49106  1  0  0  0  0
 50 52  2  0  0  0  0
 50107  1  0  0  0  0
 51 52  1  0  0  0  0
 51108  1  0  0  0  0
 52109  1  0  0  0  0
M  END
> <PUBCHEM_COMPOUND_CID>
11556711

> <PUBCHEM_COMPOUND_CANONICALIZED>
1

> <PUBCHEM_CACTVS_COMPLEXITY>
1180

> <PUBCHEM_CACTVS_HBOND_ACCEPTOR>
8

> <PUBCHEM_CACTVS_HBOND_DONOR>
4

> <PUBCHEM_CACTVS_ROTATABLE_BOND>
20

> <PUBCHEM_CACTVS_SUBSKEYS>
AAADcfB/uAAAAAAAAAAAAAAAEgAAAAAAAAA8YIAAAAAAAAABQAAAHgAQAAAADWzhmAYyAIPABACIAqFSEAICAAAgAAAIiIHIAIgKYDaAkTWXIAAmtgCYiAe4yPCOAAAAAAAAAAAAAAAAAAAAAAAAAAAAAA==

> <PUBCHEM_IUPAC_OPENEYE_NAME>
(2S)-N-[(1S)-1-benzyl-2-[[(1S)-3-methyl-1-[(2R)-2-methyloxirane-2-carbonyl]butyl]amino]-2-oxo-ethyl]-4-methyl-2-[[(2S)-2-[(2-morpholinoacetyl)amino]-4-phenyl-butanoyl]amino]pentanamide

> <PUBCHEM_IUPAC_CAS_NAME>
(2S)-4-methyl-N-[(2S)-1-[[(2S)-4-methyl-1-[(2R)-2-methyl-2-oxiranyl]-1-oxopentan-2-yl]amino]-1-oxo-3-phenylpropan-2-yl]-2-[[(2S)-2-[[2-(4-morpholinyl)-1-oxoethyl]amino]-1-oxo-4-phenylbutyl]amino]pentanamide

> <PUBCHEM_IUPAC_NAME>
(2S)-4-methyl-N-[(2S)-1-[[(2S)-4-methyl-1-[(2R)-2-methyloxiran-2-yl]-1-oxopentan-2-yl]amino]-1-oxo-3-phenylpropan-2-yl]-2-[[(2S)-2-[(2-morpholin-4-ylacetyl)amino]-4-phenylbutanoyl]amino]pentanamide

> <PUBCHEM_IUPAC_SYSTEMATIC_NAME>
(2S)-4-methyl-N-[(2S)-1-[[(2S)-4-methyl-1-[(2R)-2-methyloxiran-2-yl]-1-oxidanylidene-pentan-2-yl]amino]-1-oxidanylidene-3-phenyl-propan-2-yl]-2-[[(2S)-2-(2-morpholin-4-ylethanoylamino)-4-phenyl-butanoyl]amino]pentanamide

> <PUBCHEM_IUPAC_TRADITIONAL_NAME>
(2S)-N-[(1S)-1-benzyl-2-keto-2-[[(1S)-3-methyl-1-[(2R)-2-methyloxirane-2-carbonyl]butyl]amino]ethyl]-4-methyl-2-[[(2S)-2-[(2-morpholinoacetyl)amino]-4-phenyl-butanoyl]amino]valeramide

> <PUBCHEM_IUPAC_INCHI>
InChI=1S/C40H57N5O7/c1-27(2)22-32(36(47)40(5)26-52-40)42-39(50)34(24-30-14-10-7-11-15-30)44-38(49)33(23-28(3)4)43-37(48)31(17-16-29-12-8-6-9-13-29)41-35(46)25-45-18-20-51-21-19-45/h6-15,27-28,31-34H,16-26H2,1-5H3,(H,41,46)(H,42,50)(H,43,48)(H,44,49)/t31-,32-,33-,34-,40+/m0/s1

> <PUBCHEM_IUPAC_INCHIKEY>
BLMPQMFVWMYDKT-NZTKNTHTSA-N

> <PUBCHEM_XLOGP3_AA>
4.7

> <PUBCHEM_EXACT_MASS>
719.425799

> <PUBCHEM_MOLECULAR_FORMULA>
C40H57N5O7

> <PUBCHEM_MOLECULAR_WEIGHT>
719.90988

> <PUBCHEM_OPENEYE_CAN_SMILES>
CC(C)CC(C(=O)C1(CO1)C)NC(=O)C(CC2=CC=CC=C2)NC(=O)C(CC(C)C)NC(=O)C(CCC3=CC=CC=C3)NC(=O)CN4CCOCC4

> <PUBCHEM_OPENEYE_ISO_SMILES>
CC(C)C[C@@H](C(=O)[C@]1(CO1)C)NC(=O)[C@H](CC2=CC=CC=C2)NC(=O)[C@H](CC(C)C)NC(=O)[C@H](CCC3=CC=CC=C3)NC(=O)CN4CCOCC4

> <PUBCHEM_CACTVS_TPSA>
159

> <PUBCHEM_MONOISOTOPIC_WEIGHT>
719.425799

> <PUBCHEM_TOTAL_CHARGE>
0

> <PUBCHEM_HEAVY_ATOM_COUNT>
52

> <PUBCHEM_ATOM_DEF_STEREO_COUNT>
5

> <PUBCHEM_ATOM_UDEF_STEREO_COUNT>
0

> <PUBCHEM_BOND_DEF_STEREO_COUNT>
0

> <PUBCHEM_BOND_UDEF_STEREO_COUNT>
0

> <PUBCHEM_ISOTOPIC_ATOM_COUNT>
0

> <PUBCHEM_COMPONENT_COUNT>
1

> <PUBCHEM_CACTVS_TAUTO_COUNT>
32

> <PUBCHEM_COORDINATE_TYPE>
1
5
255

> <PUBCHEM_BONDANNOTATIONS>
25  10  6
30  11  5
13  17  6
29  37  8
29  38  8
37  45  8
38  46  8
44  48  8
44  49  8
45  47  8
46  47  8
48  50  8
49  51  8
50  52  8
51  52  8
15  8  5
21  9  5

$$$$
11625818
  -OEChem-11121519512D

 49 53  0     1  0  0  0  0  0999 V2000
    8.0785   -3.3220    0.0000 F   0  0  0  0  0  0  0  0  0  0  0  0
    6.3301   -3.2874    0.0000 O   0  0  0  0  0  0  0  0  0  0  0  0
    5.4641   -1.7874    0.0000 N   0  0  0  0  0  0  0  0  0  0  0  0
    4.5981    0.7126    0.0000 N   0  0  0  0  0  0  0  0  0  0  0  0
    6.3301   -0.2874    0.0000 N   0  0  0  0  0  0  0  0  0  0  0  0
    2.8660    0.7126    0.0000 N   0  0  0  0  0  0  0  0  0  0  0  0
    4.4691    2.8796    0.0000 N   0  0  0  0  0  0  0  0  0  0  0  0
    3.0752    3.6844    0.0000 N   0  0  0  0  0  0  0  0  0  0  0  0
    2.0000    2.2126    0.0000 N   0  0  0  0  0  0  0  0  0  0  0  0
    4.5981   -0.2874    0.0000 C   0  0  2  0  0  0  0  0  0  0  0  0
    5.4641   -0.7874    0.0000 C   0  0  0  0  0  0  0  0  0  0  0  0
    3.7320   -0.7874    0.0000 C   0  0  0  0  0  0  0  0  0  0  0  0
    6.3301   -2.2874    0.0000 C   0  0  0  0  0  0  0  0  0  0  0  0
    7.1962   -1.7874    0.0000 C   0  0  0  0  0  0  0  0  0  0  0  0
    7.1962   -0.7874    0.0000 C   0  0  0  0  0  0  0  0  0  0  0  0
    2.8660   -0.2874    0.0000 C   0  0  0  0  0  0  0  0  0  0  0  0
    4.5981   -2.2874    0.0000 C   0  0  0  0  0  0  0  0  0  0  0  0
    3.7320    1.2126    0.0000 C   0  0  0  0  0  0  0  0  0  0  0  0
    3.7320    2.2126    0.0000 C   0  0  0  0  0  0  0  0  0  0  0  0
    8.0901   -2.3221    0.0000 C   0  0  0  0  0  0  0  0  0  0  0  0
    8.0901   -0.2528    0.0000 C   0  0  0  0  0  0  0  0  0  0  0  0
    3.7320   -1.7874    0.0000 C   0  0  0  0  0  0  0  0  0  0  0  0
    4.5981   -3.2874    0.0000 C   0  0  0  0  0  0  0  0  0  0  0  0
    2.8660    2.7126    0.0000 C   0  0  0  0  0  0  0  0  0  0  0  0
    8.9962   -1.8082    0.0000 C   0  0  0  0  0  0  0  0  0  0  0  0
    8.9962   -0.7666    0.0000 C   0  0  0  0  0  0  0  0  0  0  0  0
    2.8660   -2.2874    0.0000 C   0  0  0  0  0  0  0  0  0  0  0  0
    3.7320   -3.7874    0.0000 C   0  0  0  0  0  0  0  0  0  0  0  0
    2.8660   -3.2874    0.0000 C   0  0  0  0  0  0  0  0  0  0  0  0
    4.0640    3.7874    0.0000 C   0  0  0  0  0  0  0  0  0  0  0  0
    2.0000    1.2126    0.0000 C   0  0  0  0  0  0  0  0  0  0  0  0
    5.1350    0.0226    0.0000 H   0  0  0  0  0  0  0  0  0  0  0  0
    3.3335   -1.2624    0.0000 H   0  0  0  0  0  0  0  0  0  0  0  0
    4.1306   -1.2624    0.0000 H   0  0  0  0  0  0  0  0  0  0  0  0
    5.1350    1.0226    0.0000 H   0  0  0  0  0  0  0  0  0  0  0  0
    3.1760    0.2495    0.0000 H   0  0  0  0  0  0  0  0  0  0  0  0
    2.3291    0.0226    0.0000 H   0  0  0  0  0  0  0  0  0  0  0  0
    2.5560   -0.8244    0.0000 H   0  0  0  0  0  0  0  0  0  0  0  0
    8.0829    0.3672    0.0000 H   0  0  0  0  0  0  0  0  0  0  0  0
    3.7320   -1.1674    0.0000 H   0  0  0  0  0  0  0  0  0  0  0  0
    5.1350   -3.5974    0.0000 H   0  0  0  0  0  0  0  0  0  0  0  0
    9.5319   -2.1203    0.0000 H   0  0  0  0  0  0  0  0  0  0  0  0
    9.5319   -0.4546    0.0000 H   0  0  0  0  0  0  0  0  0  0  0  0
    5.0757    2.7518    0.0000 H   0  0  0  0  0  0  0  0  0  0  0  0
    2.3291   -1.9774    0.0000 H   0  0  0  0  0  0  0  0  0  0  0  0
    3.7320   -4.4074    0.0000 H   0  0  0  0  0  0  0  0  0  0  0  0
    2.3291   -3.5974    0.0000 H   0  0  0  0  0  0  0  0  0  0  0  0
    4.3740    4.3244    0.0000 H   0  0  0  0  0  0  0  0  0  0  0  0
    1.4631    0.9026    0.0000 H   0  0  0  0  0  0  0  0  0  0  0  0
  1 20  1  0  0  0  0
  2 13  2  0  0  0  0
  3 11  1  0  0  0  0
  3 13  1  0  0  0  0
  3 17  1  0  0  0  0
 10  4  1  6  0  0  0
  4 18  1  0  0  0  0
  4 35  1  0  0  0  0
  5 11  2  0  0  0  0
  5 15  1  0  0  0  0
  6 18  2  0  0  0  0
  6 31  1  0  0  0  0
  7 19  1  0  0  0  0
  7 30  1  0  0  0  0
  7 44  1  0  0  0  0
  8 24  1  0  0  0  0
  8 30  2  0  0  0  0
  9 24  1  0  0  0  0
  9 31  2  0  0  0  0
 10 11  1  0  0  0  0
 10 12  1  0  0  0  0
 10 32  1  0  0  0  0
 12 16  1  0  0  0  0
 12 33  1  0  0  0  0
 12 34  1  0  0  0  0
 13 14  1  0  0  0  0
 14 15  2  0  0  0  0
 14 20  1  0  0  0  0
 15 21  1  0  0  0  0
 16 36  1  0  0  0  0
 16 37  1  0  0  0  0
 16 38  1  0  0  0  0
 17 22  2  0  0  0  0
 17 23  1  0  0  0  0
 18 19  1  0  0  0  0
 19 24  2  0  0  0  0
 20 25  2  0  0  0  0
 21 26  2  0  0  0  0
 21 39  1  0  0  0  0
 22 27  1  0  0  0  0
 22 40  1  0  0  0  0
 23 28  2  0  0  0  0
 23 41  1  0  0  0  0
 25 26  1  0  0  0  0
 25 42  1  0  0  0  0
 26 43  1  0  0  0  0
 27 29  2  0  0  0  0
 27 45  1  0  0  0  0
 28 29  1  0  0  0  0
 28 46  1  0  0  0  0
 29 47  1  0  0  0  0
 30 48  1  0  0  0  0
 31 49  1  0  0  0  0
M  END
> <PUBCHEM_COMPOUND_CID>
11625818

> <PUBCHEM_COMPOUND_CANONICALIZED>
1

> <PUBCHEM_CACTVS_COMPLEXITY>
685

> <PUBCHEM_CACTVS_HBOND_ACCEPTOR>
7

> <PUBCHEM_CACTVS_HBOND_DONOR>
2

> <PUBCHEM_CACTVS_ROTATABLE_BOND>
5

> <PUBCHEM_CACTVS_SUBSKEYS>
AAADceB7oQAAAAAAAAAAAAAAAAAAAWAAAAA8YIEAAAAAAFiB/AAAHwAQAAAADCjBnww38L/JkACoAydzdACCgC21EqAJ2aE4dNiIaDrA3dGUJYholALIyWcYiACOAAAAAAACAAAAAAAAAAQAAAAAAAAAAA==

> <PUBCHEM_IUPAC_OPENEYE_NAME>
5-fluoro-3-phenyl-2-[(1S)-1-(7H-purin-6-ylamino)propyl]quinazolin-4-one

> <PUBCHEM_IUPAC_CAS_NAME>
5-fluoro-3-phenyl-2-[(1S)-1-(7H-purin-6-ylamino)propyl]-4-quinazolinone

> <PUBCHEM_IUPAC_NAME>
5-fluoro-3-phenyl-2-[(1S)-1-(7H-purin-6-ylamino)propyl]quinazolin-4-one

> <PUBCHEM_IUPAC_SYSTEMATIC_NAME>
5-fluoranyl-3-phenyl-2-[(1S)-1-(7H-purin-6-ylamino)propyl]quinazolin-4-one

> <PUBCHEM_IUPAC_TRADITIONAL_NAME>
5-fluoro-3-phenyl-2-[(1S)-1-(7H-purin-6-ylamino)propyl]quinazolin-4-one

> <PUBCHEM_IUPAC_INCHI>
InChI=1S/C22H18FN7O/c1-2-15(28-20-18-19(25-11-24-18)26-12-27-20)21-29-16-10-6-9-14(23)17(16)22(31)30(21)13-7-4-3-5-8-13/h3-12,15H,2H2,1H3,(H2,24,25,26,27,28)/t15-/m0/s1

> <PUBCHEM_IUPAC_INCHIKEY>
IFSDAJWBUCMOAH-HNNXBMFYSA-N

> <PUBCHEM_XLOGP3_AA>
3.7

> <PUBCHEM_EXACT_MASS>
415.155686

> <PUBCHEM_MOLECULAR_FORMULA>
C22H18FN7O

> <PUBCHEM_MOLECULAR_WEIGHT>
415.423023

> <PUBCHEM_OPENEYE_CAN_SMILES>
CCC(C1=NC2=C(C(=CC=C2)F)C(=O)N1C3=CC=CC=C3)NC4=NC=NC5=C4NC=N5

> <PUBCHEM_OPENEYE_ISO_SMILES>
CC[C@@H](C1=NC2=C(C(=CC=C2)F)C(=O)N1C3=CC=CC=C3)NC4=NC=NC5=C4NC=N5

> <PUBCHEM_CACTVS_TPSA>
99.2

> <PUBCHEM_MONOISOTOPIC_WEIGHT>
415.155686

> <PUBCHEM_TOTAL_CHARGE>
0

> <PUBCHEM_HEAVY_ATOM_COUNT>
31

> <PUBCHEM_ATOM_DEF_STEREO_COUNT>
1

> <PUBCHEM_ATOM_UDEF_STEREO_COUNT>
0

> <PUBCHEM_BOND_DEF_STEREO_COUNT>
0

> <PUBCHEM_BOND_UDEF_STEREO_COUNT>
0

> <PUBCHEM_ISOTOPIC_ATOM_COUNT>
0

> <PUBCHEM_COMPONENT_COUNT>
1

> <PUBCHEM_CACTVS_TAUTO_COUNT>
112

> <PUBCHEM_COORDINATE_TYPE>
1
5
255

> <PUBCHEM_BONDANNOTATIONS>
13  14  8
14  15  8
14  20  8
15  21  8
17  22  8
17  23  8
18  19  8
19  24  8
20  25  8
21  26  8
22  27  8
23  28  8
25  26  8
27  29  8
28  29  8
3  11  8
3  13  8
10  4  6
5  11  8
5  15  8
6  18  8
6  31  8
7  19  8
7  30  8
8  24  8
8  30  8
9  24  8
9  31  8

$$$$
11626560
  -OEChem-11121519512D

 52 55  0     1  0  0  0  0  0999 V2000
    6.8671    1.8512    0.0000 Cl  0  0  0  0  0  0  0  0  0  0  0  0
    3.4030    1.8512    0.0000 Cl  0  0  0  0  0  0  0  0  0  0  0  0
    6.8671    3.8512    0.0000 F   0  0  0  0  0  0  0  0  0  0  0  0
    4.2690    0.3512    0.0000 O   0  0  0  0  0  0  0  0  0  0  0  0
    7.5837   -2.9852    0.0000 N   0  0  0  0  0  0  0  0  0  0  0  0
   10.5673   -2.6716    0.0000 N   0  0  0  0  0  0  0  0  0  0  0  0
    7.0837   -3.8512    0.0000 N   0  0  0  0  0  0  0  0  0  0  0  0
    3.4030   -2.1488    0.0000 N   0  0  0  0  0  0  0  0  0  0  0  0
    2.5369   -0.6488    0.0000 N   0  0  0  0  0  0  0  0  0  0  0  0
    8.5782   -2.8807    0.0000 C   0  0  0  0  0  0  0  0  0  0  0  0
    9.1660   -3.6897    0.0000 C   0  0  0  0  0  0  0  0  0  0  0  0
    8.9850   -1.9671    0.0000 C   0  0  0  0  0  0  0  0  0  0  0  0
    9.9795   -1.8626    0.0000 C   0  0  0  0  0  0  0  0  0  0  0  0
   10.1605   -3.5852    0.0000 C   0  0  0  0  0  0  0  0  0  0  0  0
    6.9146   -2.2420    0.0000 C   0  0  0  0  0  0  0  0  0  0  0  0
    6.0010   -2.6488    0.0000 C   0  0  0  0  0  0  0  0  0  0  0  0
    6.1056   -3.6433    0.0000 C   0  0  0  0  0  0  0  0  0  0  0  0
    5.1350   -2.1488    0.0000 C   0  0  0  0  0  0  0  0  0  0  0  0
    5.1350   -1.1488    0.0000 C   0  0  0  0  0  0  0  0  0  0  0  0
    4.2690   -2.6488    0.0000 C   0  0  0  0  0  0  0  0  0  0  0  0
    4.2690   -0.6488    0.0000 C   0  0  0  0  0  0  0  0  0  0  0  0
    5.1350    0.8512    0.0000 C   0  0  1  0  0  0  0  0  0  0  0  0
    3.4030   -1.1488    0.0000 C   0  0  0  0  0  0  0  0  0  0  0  0
    5.1350    1.8512    0.0000 C   0  0  0  0  0  0  0  0  0  0  0  0
    6.0010    0.3512    0.0000 C   0  0  0  0  0  0  0  0  0  0  0  0
    6.0010    2.3512    0.0000 C   0  0  0  0  0  0  0  0  0  0  0  0
    4.2690    2.3512    0.0000 C   0  0  0  0  0  0  0  0  0  0  0  0
    6.0010    3.3512    0.0000 C   0  0  0  0  0  0  0  0  0  0  0  0
    4.2690    3.3512    0.0000 C   0  0  0  0  0  0  0  0  0  0  0  0
    5.1350    3.8512    0.0000 C   0  0  0  0  0  0  0  0  0  0  0  0
    8.3261   -3.4471    0.0000 H   0  0  0  0  0  0  0  0  0  0  0  0
    9.0282   -1.3486    0.0000 H   0  0  0  0  0  0  0  0  0  0  0  0
    8.3834   -1.8171    0.0000 H   0  0  0  0  0  0  0  0  0  0  0  0
    8.6088   -3.9615    0.0000 H   0  0  0  0  0  0  0  0  0  0  0  0
    9.3369   -4.2857    0.0000 H   0  0  0  0  0  0  0  0  0  0  0  0
   10.5367   -1.5908    0.0000 H   0  0  0  0  0  0  0  0  0  0  0  0
    9.8086   -1.2666    0.0000 H   0  0  0  0  0  0  0  0  0  0  0  0
   10.1173   -4.2036    0.0000 H   0  0  0  0  0  0  0  0  0  0  0  0
   10.7621   -3.7351    0.0000 H   0  0  0  0  0  0  0  0  0  0  0  0
   11.1839   -2.6068    0.0000 H   0  0  0  0  0  0  0  0  0  0  0  0
    7.0435   -1.6356    0.0000 H   0  0  0  0  0  0  0  0  0  0  0  0
    5.6448   -4.0582    0.0000 H   0  0  0  0  0  0  0  0  0  0  0  0
    5.6720   -0.8388    0.0000 H   0  0  0  0  0  0  0  0  0  0  0  0
    4.2690   -3.2688    0.0000 H   0  0  0  0  0  0  0  0  0  0  0  0
    5.1350    0.2312    0.0000 H   0  0  0  0  0  0  0  0  0  0  0  0
    5.6910   -0.1857    0.0000 H   0  0  0  0  0  0  0  0  0  0  0  0
    6.5380    0.0412    0.0000 H   0  0  0  0  0  0  0  0  0  0  0  0
    6.3110    0.8882    0.0000 H   0  0  0  0  0  0  0  0  0  0  0  0
    3.7320    3.6612    0.0000 H   0  0  0  0  0  0  0  0  0  0  0  0
    2.0000   -0.9588    0.0000 H   0  0  0  0  0  0  0  0  0  0  0  0
    2.5369   -0.0288    0.0000 H   0  0  0  0  0  0  0  0  0  0  0  0
    5.1350    4.4712    0.0000 H   0  0  0  0  0  0  0  0  0  0  0  0
  1 26  1  0  0  0  0
  2 27  1  0  0  0  0
  3 28  1  0  0  0  0
  4 21  1  0  0  0  0
 22  4  1  1  0  0  0
  5  7  1  0  0  0  0
  5 10  1  0  0  0  0
  5 15  1  0  0  0  0
  6 13  1  0  0  0  0
  6 14  1  0  0  0  0
  6 40  1  0  0  0  0
  7 17  2  0  0  0  0
  8 20  2  0  0  0  0
  8 23  1  0  0  0  0
  9 23  1  0  0  0  0
  9 50  1  0  0  0  0
  9 51  1  0  0  0  0
 10 11  1  0  0  0  0
 10 12  1  0  0  0  0
 10 31  1  0  0  0  0
 11 14  1  0  0  0  0
 11 34  1  0  0  0  0
 11 35  1  0  0  0  0
 12 13  1  0  0  0  0
 12 32  1  0  0  0  0
 12 33  1  0  0  0  0
 13 36  1  0  0  0  0
 13 37  1  0  0  0  0
 14 38  1  0  0  0  0
 14 39  1  0  0  0  0
 15 16  2  0  0  0  0
 15 41  1  0  0  0  0
 16 17  1  0  0  0  0
 16 18  1  0  0  0  0
 17 42  1  0  0  0  0
 18 19  2  0  0  0  0
 18 20  1  0  0  0  0
 19 21  1  0  0  0  0
 19 43  1  0  0  0  0
 20 44  1  0  0  0  0
 21 23  2  0  0  0  0
 22 24  1  0  0  0  0
 22 25  1  0  0  0  0
 22 45  1  0  0  0  0
 24 26  1  0  0  0  0
 24 27  2  0  0  0  0
 25 46  1  0  0  0  0
 25 47  1  0  0  0  0
 25 48  1  0  0  0  0
 26 28  2  0  0  0  0
 27 29  1  0  0  0  0
 28 30  1  0  0  0  0
 29 30  2  0  0  0  0
 29 49  1  0  0  0  0
 30 52  1  0  0  0  0
M  END
> <PUBCHEM_COMPOUND_CID>
11626560

> <PUBCHEM_COMPOUND_CANONICALIZED>
1

> <PUBCHEM_CACTVS_COMPLEXITY>
558

> <PUBCHEM_CACTVS_HBOND_ACCEPTOR>
6

> <PUBCHEM_CACTVS_HBOND_DONOR>
2

> <PUBCHEM_CACTVS_ROTATABLE_BOND>
5

> <PUBCHEM_CACTVS_SUBSKEYS>
AAADceB7oQAGAAAAAAAAAAAAAAAAAWAAAAA8WIAAAAAAAAAB8AAAHwIYAAAADD7hmi4/tpLIFACiAjJnZASSjCkx5SAY2KAvTpiOJuLF89uHvCjk2BPY6Cew0KIOgAAAAACBAAAAAAAAAQIAAAAAAAAAAA==

> <PUBCHEM_IUPAC_OPENEYE_NAME>
3-[(1R)-1-(2,6-dichloro-3-fluoro-phenyl)ethoxy]-5-[1-(4-piperidyl)pyrazol-4-yl]pyridin-2-amine

> <PUBCHEM_IUPAC_CAS_NAME>
3-[(1R)-1-(2,6-dichloro-3-fluorophenyl)ethoxy]-5-[1-(4-piperidinyl)-4-pyrazolyl]-2-pyridinamine

> <PUBCHEM_IUPAC_NAME>
3-[(1R)-1-(2,6-dichloro-3-fluorophenyl)ethoxy]-5-(1-piperidin-4-ylpyrazol-4-yl)pyridin-2-amine

> <PUBCHEM_IUPAC_SYSTEMATIC_NAME>
3-[(1R)-1-[2,6-bis(chloranyl)-3-fluoranyl-phenyl]ethoxy]-5-(1-piperidin-4-ylpyrazol-4-yl)pyridin-2-amine

> <PUBCHEM_IUPAC_TRADITIONAL_NAME>
[3-[(1R)-1-(2,6-dichloro-3-fluoro-phenyl)ethoxy]-5-[1-(4-piperidyl)pyrazol-4-yl]-2-pyridyl]amine

> <PUBCHEM_IUPAC_INCHI>
InChI=1S/C21H22Cl2FN5O/c1-12(19-16(22)2-3-17(24)20(19)23)30-18-8-13(9-27-21(18)25)14-10-28-29(11-14)15-4-6-26-7-5-15/h2-3,8-12,15,26H,4-7H2,1H3,(H2,25,27)/t12-/m1/s1

> <PUBCHEM_IUPAC_INCHIKEY>
KTEIFNKAUNYNJU-GFCCVEGCSA-N

> <PUBCHEM_XLOGP3_AA>
3.7

> <PUBCHEM_EXACT_MASS>
449.118544

> <PUBCHEM_MOLECULAR_FORMULA>
C21H22Cl2FN5O

> <PUBCHEM_MOLECULAR_WEIGHT>
450.336683

> <PUBCHEM_OPENEYE_CAN_SMILES>
CC(C1=C(C=CC(=C1Cl)F)Cl)OC2=C(N=CC(=C2)C3=CN(N=C3)C4CCNCC4)N

> <PUBCHEM_OPENEYE_ISO_SMILES>
C[C@H](C1=C(C=CC(=C1Cl)F)Cl)OC2=C(N=CC(=C2)C3=CN(N=C3)C4CCNCC4)N

> <PUBCHEM_CACTVS_TPSA>
78

> <PUBCHEM_MONOISOTOPIC_WEIGHT>
449.118544

> <PUBCHEM_TOTAL_CHARGE>
0

> <PUBCHEM_HEAVY_ATOM_COUNT>
30

> <PUBCHEM_ATOM_DEF_STEREO_COUNT>
1

> <PUBCHEM_ATOM_UDEF_STEREO_COUNT>
0

> <PUBCHEM_BOND_DEF_STEREO_COUNT>
0

> <PUBCHEM_BOND_UDEF_STEREO_COUNT>
0

> <PUBCHEM_ISOTOPIC_ATOM_COUNT>
0

> <PUBCHEM_COMPONENT_COUNT>
1

> <PUBCHEM_CACTVS_TAUTO_COUNT>
2

> <PUBCHEM_COORDINATE_TYPE>
1
5
255

> <PUBCHEM_BONDANNOTATIONS>
15  16  8
16  17  8
18  19  8
18  20  8
19  21  8
21  23  8
24  26  8
24  27  8
26  28  8
27  29  8
28  30  8
29  30  8
22  4  5
5  15  8
5  7  8
7  17  8
8  20  8
8  23  8

$$$$
11707110
  -OEChem-11121519512D

 60 64  0     0  0  0  0  0  0999 V2000
    9.9212   -4.7873    0.0000 I   0  0  0  0  0  0  0  0  0  0  0  0
    6.4573   -4.7472    0.0000 F   0  0  0  0  0  0  0  0  0  0  0  0
    4.7320   -2.7127    0.0000 O   0  0  0  0  0  0  0  0  0  0  0  0
    3.0000    0.2873    0.0000 O   0  0  0  0  0  0  0  0  0  0  0  0
    8.2622    0.3114    0.0000 O   0  0  0  0  0  0  0  0  0  0  0  0
    5.5981    4.7873    0.0000 O   0  0  0  0  0  0  0  0  0  0  0  0
    3.8660   -1.2127    0.0000 N   0  0  0  0  0  0  0  0  0  0  0  0
    4.7320    0.2873    0.0000 N   0  0  0  0  0  0  0  0  0  0  0  0
    7.3981   -1.2336    0.0000 N   0  0  0  0  0  0  0  0  0  0  0  0
    6.4804   -2.7473    0.0000 N   0  0  0  0  0  0  0  0  0  0  0  0
    6.4641    3.2873    0.0000 N   0  0  0  0  0  0  0  0  0  0  0  0
    3.0000   -1.7127    0.0000 C   0  0  0  0  0  0  0  0  0  0  0  0
    2.0000   -1.7127    0.0000 C   0  0  0  0  0  0  0  0  0  0  0  0
    2.5000   -2.5788    0.0000 C   0  0  0  0  0  0  0  0  0  0  0  0
    4.7320   -1.7127    0.0000 C   0  0  0  0  0  0  0  0  0  0  0  0
    3.8660   -0.2127    0.0000 C   0  0  0  0  0  0  0  0  0  0  0  0
    5.5981   -1.2127    0.0000 C   0  0  0  0  0  0  0  0  0  0  0  0
    5.5981   -0.2127    0.0000 C   0  0  0  0  0  0  0  0  0  0  0  0
    6.4920   -1.7474    0.0000 C   0  0  0  0  0  0  0  0  0  0  0  0
    6.4920    0.3219    0.0000 C   0  0  0  0  0  0  0  0  0  0  0  0
    4.7320    1.2873    0.0000 C   0  0  0  0  0  0  0  0  0  0  0  0
    7.3981   -0.1919    0.0000 C   0  0  0  0  0  0  0  0  0  0  0  0
    6.4804    1.3218    0.0000 C   0  0  0  0  0  0  0  0  0  0  0  0
    5.5981    1.7873    0.0000 C   0  0  0  0  0  0  0  0  0  0  0  0
    3.8660    1.7873    0.0000 C   0  0  0  0  0  0  0  0  0  0  0  0
    8.2622   -1.7369    0.0000 C   0  0  0  0  0  0  0  0  0  0  0  0
    7.3406   -3.2573    0.0000 C   0  0  0  0  0  0  0  0  0  0  0  0
    5.5981    2.7873    0.0000 C   0  0  0  0  0  0  0  0  0  0  0  0
    3.8660    2.7873    0.0000 C   0  0  0  0  0  0  0  0  0  0  0  0
    4.7320    3.2873    0.0000 C   0  0  0  0  0  0  0  0  0  0  0  0
    7.3291   -4.2572    0.0000 C   0  0  0  0  0  0  0  0  0  0  0  0
    8.2124   -2.7674    0.0000 C   0  0  0  0  0  0  0  0  0  0  0  0
    8.1893   -4.7672    0.0000 C   0  0  0  0  0  0  0  0  0  0  0  0
    9.0726   -3.2773    0.0000 C   0  0  0  0  0  0  0  0  0  0  0  0
    9.0610   -4.2773    0.0000 C   0  0  0  0  0  0  0  0  0  0  0  0
    6.4641    4.2873    0.0000 C   0  0  0  0  0  0  0  0  0  0  0  0
    7.3301    4.7873    0.0000 C   0  0  0  0  0  0  0  0  0  0  0  0
    2.8395   -1.1139    0.0000 H   0  0  0  0  0  0  0  0  0  0  0  0
    1.8923   -1.1022    0.0000 H   0  0  0  0  0  0  0  0  0  0  0  0
    1.4174   -1.9248    0.0000 H   0  0  0  0  0  0  0  0  0  0  0  0
    2.0250   -2.9773    0.0000 H   0  0  0  0  0  0  0  0  0  0  0  0
    2.9750   -2.9773    0.0000 H   0  0  0  0  0  0  0  0  0  0  0  0
    5.9400   -3.0511    0.0000 H   0  0  0  0  0  0  0  0  0  0  0  0
    7.1004    1.3290    0.0000 H   0  0  0  0  0  0  0  0  0  0  0  0
    6.4733    1.9418    0.0000 H   0  0  0  0  0  0  0  0  0  0  0  0
    5.8605    1.3147    0.0000 H   0  0  0  0  0  0  0  0  0  0  0  0
    6.1350    1.4773    0.0000 H   0  0  0  0  0  0  0  0  0  0  0  0
    3.3291    1.4773    0.0000 H   0  0  0  0  0  0  0  0  0  0  0  0
    7.9501   -2.2726    0.0000 H   0  0  0  0  0  0  0  0  0  0  0  0
    8.7979   -2.0490    0.0000 H   0  0  0  0  0  0  0  0  0  0  0  0
    8.5742   -1.2012    0.0000 H   0  0  0  0  0  0  0  0  0  0  0  0
    3.3291    3.0973    0.0000 H   0  0  0  0  0  0  0  0  0  0  0  0
    4.7320    3.9073    0.0000 H   0  0  0  0  0  0  0  0  0  0  0  0
    8.2196   -2.1474    0.0000 H   0  0  0  0  0  0  0  0  0  0  0  0
    7.0010    2.9773    0.0000 H   0  0  0  0  0  0  0  0  0  0  0  0
    8.1821   -5.3872    0.0000 H   0  0  0  0  0  0  0  0  0  0  0  0
    9.6131   -2.9736    0.0000 H   0  0  0  0  0  0  0  0  0  0  0  0
    7.6401    4.2503    0.0000 H   0  0  0  0  0  0  0  0  0  0  0  0
    7.8671    5.0973    0.0000 H   0  0  0  0  0  0  0  0  0  0  0  0
    7.0201    5.3242    0.0000 H   0  0  0  0  0  0  0  0  0  0  0  0
  1 35  1  0  0  0  0
  2 31  1  0  0  0  0
  3 15  2  0  0  0  0
  4 16  2  0  0  0  0
  5 22  2  0  0  0  0
  6 36  2  0  0  0  0
  7 12  1  0  0  0  0
  7 15  1  0  0  0  0
  7 16  1  0  0  0  0
  8 16  1  0  0  0  0
  8 18  1  0  0  0  0
  8 21  1  0  0  0  0
  9 19  1  0  0  0  0
  9 22  1  0  0  0  0
  9 26  1  0  0  0  0
 10 19  1  0  0  0  0
 10 27  1  0  0  0  0
 10 43  1  0  0  0  0
 11 28  1  0  0  0  0
 11 36  1  0  0  0  0
 11 55  1  0  0  0  0
 12 13  1  0  0  0  0
 12 14  1  0  0  0  0
 12 38  1  0  0  0  0
 13 14  1  0  0  0  0
 13 39  1  0  0  0  0
 13 40  1  0  0  0  0
 14 41  1  0  0  0  0
 14 42  1  0  0  0  0
 15 17  1  0  0  0  0
 17 18  1  0  0  0  0
 17 19  2  0  0  0  0
 18 20  2  0  0  0  0
 20 22  1  0  0  0  0
 20 23  1  0  0  0  0
 21 24  1  0  0  0  0
 21 25  2  0  0  0  0
 23 44  1  0  0  0  0
 23 45  1  0  0  0  0
 23 46  1  0  0  0  0
 24 28  2  0  0  0  0
 24 47  1  0  0  0  0
 25 29  1  0  0  0  0
 25 48  1  0  0  0  0
 26 49  1  0  0  0  0
 26 50  1  0  0  0  0
 26 51  1  0  0  0  0
 27 31  2  0  0  0  0
 27 32  1  0  0  0  0
 28 30  1  0  0  0  0
 29 30  2  0  0  0  0
 29 52  1  0  0  0  0
 30 53  1  0  0  0  0
 31 33  1  0  0  0  0
 32 34  2  0  0  0  0
 32 54  1  0  0  0  0
 33 35  2  0  0  0  0
 33 56  1  0  0  0  0
 34 35  1  0  0  0  0
 34 57  1  0  0  0  0
 36 37  1  0  0  0  0
 37 58  1  0  0  0  0
 37 59  1  0  0  0  0
 37 60  1  0  0  0  0
M  END
> <PUBCHEM_COMPOUND_CID>
11707110

> <PUBCHEM_COMPOUND_CANONICALIZED>
1

> <PUBCHEM_CACTVS_COMPLEXITY>
1090

> <PUBCHEM_CACTVS_HBOND_ACCEPTOR>
6

> <PUBCHEM_CACTVS_HBOND_DONOR>
2

> <PUBCHEM_CACTVS_ROTATABLE_BOND>
5

> <PUBCHEM_CACTVS_SUBSKEYS>
AAADceB7uQAAAgAAAAAAAAAAGAAAAAAAAAA8YIEAAAAAAACBQAAAHwAwAAAADCjDkAwzwIPAAACIAiVSUACCAAAhAgAIiAEIZMiIICrA0dGEIAholyLIyWcQAAAAAAAAAAQAAAAAAAAACAAAAAAAAAAAAA==

> <PUBCHEM_IUPAC_OPENEYE_NAME>
N-[3-[3-cyclopropyl-5-(2-fluoro-4-iodo-anilino)-6,8-dimethyl-2,4,7-trioxo-pyrido[4,3-d]pyrimidin-1-yl]phenyl]acetamide

> <PUBCHEM_IUPAC_CAS_NAME>
N-[3-[3-cyclopropyl-5-(2-fluoro-4-iodoanilino)-6,8-dimethyl-2,4,7-trioxo-1-pyrido[4,3-d]pyrimidinyl]phenyl]acetamide

> <PUBCHEM_IUPAC_NAME>
N-[3-[3-cyclopropyl-5-(2-fluoro-4-iodoanilino)-6,8-dimethyl-2,4,7-trioxopyrido[4,3-d]pyrimidin-1-yl]phenyl]acetamide

> <PUBCHEM_IUPAC_SYSTEMATIC_NAME>
N-[3-[3-cyclopropyl-5-[(2-fluoranyl-4-iodanyl-phenyl)amino]-6,8-dimethyl-2,4,7-tris(oxidanylidene)pyrido[4,3-d]pyrimidin-1-yl]phenyl]ethanamide

> <PUBCHEM_IUPAC_TRADITIONAL_NAME>
N-[3-[3-cyclopropyl-5-(2-fluoro-4-iodo-anilino)-2,4,7-triketo-6,8-dimethyl-pyrido[4,3-d]pyrimidin-1-yl]phenyl]acetamide

> <PUBCHEM_IUPAC_INCHI>
InChI=1S/C26H23FIN5O4/c1-13-22-21(23(31(3)24(13)35)30-20-10-7-15(28)11-19(20)27)25(36)33(17-8-9-17)26(37)32(22)18-6-4-5-16(12-18)29-14(2)34/h4-7,10-12,17,30H,8-9H2,1-3H3,(H,29,34)

> <PUBCHEM_IUPAC_INCHIKEY>
LIRYPHYGHXZJBZ-UHFFFAOYSA-N

> <PUBCHEM_XLOGP3_AA>
3.4

> <PUBCHEM_EXACT_MASS>
615.07788

> <PUBCHEM_MOLECULAR_FORMULA>
C26H23FIN5O4

> <PUBCHEM_MOLECULAR_WEIGHT>
615.394793

> <PUBCHEM_OPENEYE_CAN_SMILES>
CC1=C2C(=C(N(C1=O)C)NC3=C(C=C(C=C3)I)F)C(=O)N(C(=O)N2C4=CC(=CC=C4)NC(=O)C)C5CC5

> <PUBCHEM_OPENEYE_ISO_SMILES>
CC1=C2C(=C(N(C1=O)C)NC3=C(C=C(C=C3)I)F)C(=O)N(C(=O)N2C4=CC(=CC=C4)NC(=O)C)C5CC5

> <PUBCHEM_CACTVS_TPSA>
102

> <PUBCHEM_MONOISOTOPIC_WEIGHT>
615.07788

> <PUBCHEM_TOTAL_CHARGE>
0

> <PUBCHEM_HEAVY_ATOM_COUNT>
37

> <PUBCHEM_ATOM_DEF_STEREO_COUNT>
0

> <PUBCHEM_ATOM_UDEF_STEREO_COUNT>
0

> <PUBCHEM_BOND_DEF_STEREO_COUNT>
0

> <PUBCHEM_BOND_UDEF_STEREO_COUNT>
0

> <PUBCHEM_ISOTOPIC_ATOM_COUNT>
0

> <PUBCHEM_COMPONENT_COUNT>
1

> <PUBCHEM_CACTVS_TAUTO_COUNT>
54

> <PUBCHEM_COORDINATE_TYPE>
1
5
255

> <PUBCHEM_BONDANNOTATIONS>
15  17  8
17  18  8
17  19  8
18  20  8
20  22  8
21  24  8
21  25  8
24  28  8
25  29  8
27  31  8
27  32  8
28  30  8
29  30  8
31  33  8
32  34  8
33  35  8
34  35  8
7  15  8
7  16  8
8  16  8
8  18  8
9  19  8
9  22  8

$$$$
11964036
  -OEChem-11121519512D

 76 82  0     0  0  0  0  0  0999 V2000
    4.5274    2.9894    0.0000 S   0  0  0  0  0  0  0  0  0  0  0  0
    8.3343    3.0775    0.0000 O   0  0  0  0  0  0  0  0  0  0  0  0
   11.3199    1.0560    0.0000 O   0  0  0  0  0  0  0  0  0  0  0  0
    7.0333   -0.8359    0.0000 O   0  0  0  0  0  0  0  0  0  0  0  0
    9.2614    5.9306    0.0000 O   0  0  0  0  0  0  0  0  0  0  0  0
    6.3933   -2.7307    0.0000 N   0  0  0  0  0  0  0  0  0  0  0  0
    7.7143   -4.2324    0.0000 N   0  0  0  0  0  0  0  0  0  0  0  0
    5.3923   -0.2817    0.0000 N   0  0  0  0  0  0  0  0  0  0  0  0
    9.9816    2.5422    0.0000 N   0  0  0  0  0  0  0  0  0  0  0  0
    6.0733   -3.6782    0.0000 C   0  0  0  0  0  0  0  0  0  0  0  0
    7.3738   -2.5342    0.0000 C   0  0  0  0  0  0  0  0  0  0  0  0
    6.7338   -4.4290    0.0000 C   0  0  0  0  0  0  0  0  0  0  0  0
    8.0343   -3.2850    0.0000 C   0  0  0  0  0  0  0  0  0  0  0  0
    5.7328   -1.9799    0.0000 C   0  0  0  0  0  0  0  0  0  0  0  0
    8.3748   -4.9832    0.0000 C   0  0  0  0  0  0  0  0  0  0  0  0
    6.0528   -1.0325    0.0000 C   0  0  0  0  0  0  0  0  0  0  0  0
    8.0548   -5.9306    0.0000 C   0  0  0  0  0  0  0  0  0  0  0  0
    5.0274    1.4505    0.0000 C   0  0  0  0  0  0  0  0  0  0  0  0
    5.7123    0.6658    0.0000 C   0  0  0  0  0  0  0  0  0  0  0  0
    5.3364    2.4016    0.0000 C   0  0  0  0  0  0  0  0  0  0  0  0
    6.3518    2.6338    0.0000 C   0  0  0  0  0  0  0  0  0  0  0  0
    4.0274    1.4505    0.0000 C   0  0  0  0  0  0  0  0  0  0  0  0
    6.6498    3.5884    0.0000 C   0  0  0  0  0  0  0  0  0  0  0  0
   10.9597    2.7502    0.0000 C   0  0  0  0  0  0  0  0  0  0  0  0
    9.6726    1.5912    0.0000 C   0  0  0  0  0  0  0  0  0  0  0  0
    7.6652    3.8206    0.0000 C   0  0  0  0  0  0  0  0  0  0  0  0
    6.7328    0.8745    0.0000 C   0  0  0  0  0  0  0  0  0  0  0  0
    9.3125    3.2854    0.0000 C   0  0  0  0  0  0  0  0  0  0  0  0
    3.7183    2.4016    0.0000 C   0  0  0  0  0  0  0  0  0  0  0  0
    7.0547    1.8651    0.0000 C   0  0  0  0  0  0  0  0  0  0  0  0
   11.6289    2.0070    0.0000 C   0  0  0  0  0  0  0  0  0  0  0  0
   10.3417    0.8480    0.0000 C   0  0  0  0  0  0  0  0  0  0  0  0
    7.9742    4.7717    0.0000 C   0  0  0  0  0  0  0  0  0  0  0  0
    5.9469    4.3571    0.0000 C   0  0  0  0  0  0  0  0  0  0  0  0
    9.6215    4.2364    0.0000 C   0  0  0  0  0  0  0  0  0  0  0  0
    3.3424    0.6658    0.0000 C   0  0  0  0  0  0  0  0  0  0  0  0
    8.9524    4.9796    0.0000 C   0  0  0  0  0  0  0  0  0  0  0  0
    7.2892    5.5564    0.0000 C   0  0  0  0  0  0  0  0  0  0  0  0
    2.7029    2.6338    0.0000 C   0  0  0  0  0  0  0  0  0  0  0  0
    6.2687    5.3477    0.0000 C   0  0  0  0  0  0  0  0  0  0  0  0
    2.3219    0.8745    0.0000 C   0  0  0  0  0  0  0  0  0  0  0  0
    2.0000    1.8651    0.0000 C   0  0  0  0  0  0  0  0  0  0  0  0
    7.9034   -2.2117    0.0000 H   0  0  0  0  0  0  0  0  0  0  0  0
    7.1482   -1.9566    0.0000 H   0  0  0  0  0  0  0  0  0  0  0  0
    5.5293   -3.3808    0.0000 H   0  0  0  0  0  0  0  0  0  0  0  0
    5.6860   -4.1623    0.0000 H   0  0  0  0  0  0  0  0  0  0  0  0
    6.2043   -4.7514    0.0000 H   0  0  0  0  0  0  0  0  0  0  0  0
    6.9594   -5.0065    0.0000 H   0  0  0  0  0  0  0  0  0  0  0  0
    8.5783   -3.5824    0.0000 H   0  0  0  0  0  0  0  0  0  0  0  0
    8.4216   -2.8009    0.0000 H   0  0  0  0  0  0  0  0  0  0  0  0
    5.1888   -1.6825    0.0000 H   0  0  0  0  0  0  0  0  0  0  0  0
    5.3455   -2.4640    0.0000 H   0  0  0  0  0  0  0  0  0  0  0  0
    8.9188   -5.2806    0.0000 H   0  0  0  0  0  0  0  0  0  0  0  0
    8.7621   -4.4991    0.0000 H   0  0  0  0  0  0  0  0  0  0  0  0
    7.4674   -5.7323    0.0000 H   0  0  0  0  0  0  0  0  0  0  0  0
    7.8564   -6.5180    0.0000 H   0  0  0  0  0  0  0  0  0  0  0  0
    8.6422   -6.1290    0.0000 H   0  0  0  0  0  0  0  0  0  0  0  0
    4.7844   -0.4035    0.0000 H   0  0  0  0  0  0  0  0  0  0  0  0
    9.1252    1.8823    0.0000 H   0  0  0  0  0  0  0  0  0  0  0  0
    9.2909    1.1026    0.0000 H   0  0  0  0  0  0  0  0  0  0  0  0
   11.4855    3.0787    0.0000 H   0  0  0  0  0  0  0  0  0  0  0  0
   10.7275    3.3250    0.0000 H   0  0  0  0  0  0  0  0  0  0  0  0
    7.1459    0.4121    0.0000 H   0  0  0  0  0  0  0  0  0  0  0  0
    7.6607    1.9964    0.0000 H   0  0  0  0  0  0  0  0  0  0  0  0
    9.8159    0.5195    0.0000 H   0  0  0  0  0  0  0  0  0  0  0  0
   10.5740    0.2732    0.0000 H   0  0  0  0  0  0  0  0  0  0  0  0
   12.1763    1.7159    0.0000 H   0  0  0  0  0  0  0  0  0  0  0  0
   12.0106    2.4956    0.0000 H   0  0  0  0  0  0  0  0  0  0  0  0
    5.3409    4.2258    0.0000 H   0  0  0  0  0  0  0  0  0  0  0  0
   10.2279    4.3654    0.0000 H   0  0  0  0  0  0  0  0  0  0  0  0
    3.5408    0.0784    0.0000 H   0  0  0  0  0  0  0  0  0  0  0  0
    7.4876    6.1438    0.0000 H   0  0  0  0  0  0  0  0  0  0  0  0
    2.5182    3.2256    0.0000 H   0  0  0  0  0  0  0  0  0  0  0  0
    5.8556    5.8101    0.0000 H   0  0  0  0  0  0  0  0  0  0  0  0
    1.9088    0.4121    0.0000 H   0  0  0  0  0  0  0  0  0  0  0  0
    1.3940    1.9964    0.0000 H   0  0  0  0  0  0  0  0  0  0  0  0
  1 20  1  0  0  0  0
  1 29  1  0  0  0  0
  2 26  1  0  0  0  0
  2 28  1  0  0  0  0
  3 31  1  0  0  0  0
  3 32  1  0  0  0  0
  4 16  2  0  0  0  0
  5 37  2  0  0  0  0
  6 10  1  0  0  0  0
  6 11  1  0  0  0  0
  6 14  1  0  0  0  0
  7 12  1  0  0  0  0
  7 13  1  0  0  0  0
  7 15  1  0  0  0  0
  8 16  1  0  0  0  0
  8 19  1  0  0  0  0
  8 58  1  0  0  0  0
  9 24  1  0  0  0  0
  9 25  1  0  0  0  0
  9 28  1  0  0  0  0
 10 12  1  0  0  0  0
 10 45  1  0  0  0  0
 10 46  1  0  0  0  0
 11 13  1  0  0  0  0
 11 43  1  0  0  0  0
 11 44  1  0  0  0  0
 12 47  1  0  0  0  0
 12 48  1  0  0  0  0
 13 49  1  0  0  0  0
 13 50  1  0  0  0  0
 14 16  1  0  0  0  0
 14 51  1  0  0  0  0
 14 52  1  0  0  0  0
 15 17  1  0  0  0  0
 15 53  1  0  0  0  0
 15 54  1  0  0  0  0
 17 55  1  0  0  0  0
 17 56  1  0  0  0  0
 17 57  1  0  0  0  0
 18 19  2  0  0  0  0
 18 20  1  0  0  0  0
 18 22  1  0  0  0  0
 19 27  1  0  0  0  0
 20 21  2  0  0  0  0
 21 23  1  0  0  0  0
 21 30  1  0  0  0  0
 22 29  1  0  0  0  0
 22 36  2  0  0  0  0
 23 26  1  0  0  0  0
 23 34  2  0  0  0  0
 24 31  1  0  0  0  0
 24 61  1  0  0  0  0
 24 62  1  0  0  0  0
 25 32  1  0  0  0  0
 25 59  1  0  0  0  0
 25 60  1  0  0  0  0
 26 33  2  0  0  0  0
 27 30  2  0  0  0  0
 27 63  1  0  0  0  0
 28 35  2  0  0  0  0
 29 39  2  0  0  0  0
 30 64  1  0  0  0  0
 31 67  1  0  0  0  0
 31 68  1  0  0  0  0
 32 65  1  0  0  0  0
 32 66  1  0  0  0  0
 33 37  1  0  0  0  0
 33 38  1  0  0  0  0
 34 40  1  0  0  0  0
 34 69  1  0  0  0  0
 35 37  1  0  0  0  0
 35 70  1  0  0  0  0
 36 41  1  0  0  0  0
 36 71  1  0  0  0  0
 38 40  2  0  0  0  0
 38 72  1  0  0  0  0
 39 42  1  0  0  0  0
 39 73  1  0  0  0  0
 40 74  1  0  0  0  0
 41 42  2  0  0  0  0
 41 75  1  0  0  0  0
 42 76  1  0  0  0  0
M  END
> <PUBCHEM_COMPOUND_CID>
11964036

> <PUBCHEM_COMPOUND_CANONICALIZED>
1

> <PUBCHEM_CACTVS_COMPLEXITY>
1010

> <PUBCHEM_CACTVS_HBOND_ACCEPTOR>
8

> <PUBCHEM_CACTVS_HBOND_DONOR>
1

> <PUBCHEM_CACTVS_ROTATABLE_BOND>
6

> <PUBCHEM_CACTVS_SUBSKEYS>
AAADcfB/uABAAAAAAAAAAAAAAAAAASAAAAA8eMECAAAAAEiB/AAAHgQQAAAADAzh2AYyx8PABAiMAqVSUACDCIAlKhBIiBmMbMgOZjbktbufMWxk9BH46ceYyPCOiAACACAOAAAQAAQAQBwAAAAAAAAAAA==

> <PUBCHEM_IUPAC_OPENEYE_NAME>
2-(4-ethylpiperazin-1-yl)-N-[4-(2-morpholino-4-oxo-chromen-8-yl)dibenzothiophen-1-yl]acetamide

> <PUBCHEM_IUPAC_CAS_NAME>
2-(4-ethyl-1-piperazinyl)-N-[4-[2-(4-morpholinyl)-4-oxo-1-benzopyran-8-yl]-1-dibenzothiophenyl]acetamide

> <PUBCHEM_IUPAC_NAME>
2-(4-ethylpiperazin-1-yl)-N-[4-(2-morpholin-4-yl-4-oxochromen-8-yl)dibenzothiophen-1-yl]acetamide

> <PUBCHEM_IUPAC_SYSTEMATIC_NAME>
2-(4-ethylpiperazin-1-yl)-N-[4-(2-morpholin-4-yl-4-oxidanylidene-chromen-8-yl)dibenzothiophen-1-yl]ethanamide

> <PUBCHEM_IUPAC_TRADITIONAL_NAME>
2-(4-ethylpiperazino)-N-[4-(4-keto-2-morpholino-chromen-8-yl)dibenzothiophen-1-yl]acetamide

> <PUBCHEM_IUPAC_INCHI>
InChI=1S/C33H34N4O4S/c1-2-35-12-14-36(15-13-35)21-29(39)34-26-11-10-23(33-31(26)25-6-3-4-9-28(25)42-33)22-7-5-8-24-27(38)20-30(41-32(22)24)37-16-18-40-19-17-37/h3-11,20H,2,12-19,21H2,1H3,(H,34,39)

> <PUBCHEM_IUPAC_INCHIKEY>
AATCBLYHOUOCTO-UHFFFAOYSA-N

> <PUBCHEM_XLOGP3_AA>
4.9

> <PUBCHEM_EXACT_MASS>
582.230077

> <PUBCHEM_MOLECULAR_FORMULA>
C33H34N4O4S

> <PUBCHEM_MOLECULAR_WEIGHT>
582.71246

> <PUBCHEM_OPENEYE_CAN_SMILES>
CCN1CCN(CC1)CC(=O)NC2=C3C4=CC=CC=C4SC3=C(C=C2)C5=CC=CC6=C5OC(=CC6=O)N7CCOCC7

> <PUBCHEM_OPENEYE_ISO_SMILES>
CCN1CCN(CC1)CC(=O)NC2=C3C4=CC=CC=C4SC3=C(C=C2)C5=CC=CC6=C5OC(=CC6=O)N7CCOCC7

> <PUBCHEM_CACTVS_TPSA>
103

> <PUBCHEM_MONOISOTOPIC_WEIGHT>
582.230077

> <PUBCHEM_TOTAL_CHARGE>
0

> <PUBCHEM_HEAVY_ATOM_COUNT>
42

> <PUBCHEM_ATOM_DEF_STEREO_COUNT>
0

> <PUBCHEM_ATOM_UDEF_STEREO_COUNT>
0

> <PUBCHEM_BOND_DEF_STEREO_COUNT>
0

> <PUBCHEM_BOND_UDEF_STEREO_COUNT>
0

> <PUBCHEM_ISOTOPIC_ATOM_COUNT>
0

> <PUBCHEM_COMPONENT_COUNT>
1

> <PUBCHEM_CACTVS_TAUTO_COUNT>
3

> <PUBCHEM_COORDINATE_TYPE>
1
5
255

> <PUBCHEM_BONDANNOTATIONS>
1  20  8
1  29  8
18  19  8
18  20  8
18  22  8
19  27  8
2  26  8
2  28  8
20  21  8
21  30  8
22  29  8
22  36  8
23  26  8
23  34  8
26  33  8
27  30  8
28  35  8
29  39  8
33  37  8
33  38  8
34  40  8
35  37  8
36  41  8
38  40  8
39  42  8
41  42  8

$$$$
15953870
  -OEChem-11121519512D

 72 77  0     1  0  0  0  0  0999 V2000
   10.7262   -0.9601    0.0000 S   0  0  0  0  0  0  0  0  0  0  0  0
    2.8602   -1.5010    0.0000 O   0  0  0  0  0  0  0  0  0  0  0  0
   15.9038    3.1143    0.0000 O   0  0  0  0  0  0  0  0  0  0  0  0
   13.3348    0.5844    0.0000 O   0  0  0  0  0  0  0  0  0  0  0  0
    6.3243   -1.4876    0.0000 O   0  0  0  0  0  0  0  0  0  0  0  0
   10.7196    2.0543    0.0000 O   0  0  0  0  0  0  0  0  0  0  0  0
    4.5961   -2.4943    0.0000 N   0  0  0  0  0  0  0  0  0  0  0  0
    7.1961   -2.9843    0.0000 N   0  0  0  0  0  0  0  0  0  0  0  0
   14.1835    2.0944    0.0000 N   0  0  0  0  0  0  0  0  0  0  0  0
    4.5923   -1.4943    0.0000 C   0  0  0  0  0  0  0  0  0  0  0  0
    3.7320   -2.9976    0.0000 C   0  0  0  0  0  0  0  0  0  0  0  0
    2.8641   -2.5010    0.0000 C   0  0  2  0  0  0  0  0  0  0  0  0
    3.7243   -0.9976    0.0000 C   0  0  1  0  0  0  0  0  0  0  0  0
    5.4641   -2.9910    0.0000 C   0  0  0  0  0  0  0  0  0  0  0  0
    3.7205    0.0023    0.0000 C   0  0  0  0  0  0  0  0  0  0  0  0
    2.0000   -3.0043    0.0000 C   0  0  0  0  0  0  0  0  0  0  0  0
    6.3282   -2.4876    0.0000 C   0  0  0  0  0  0  0  0  0  0  0  0
   10.7262   -2.9601    0.0000 C   0  0  0  0  0  0  0  0  0  0  0  0
    9.8602   -2.4601    0.0000 C   0  0  0  0  0  0  0  0  0  0  0  0
   11.5923   -2.4601    0.0000 C   0  0  0  0  0  0  0  0  0  0  0  0
    8.0602   -2.4809    0.0000 C   0  0  0  0  0  0  0  0  0  0  0  0
   14.1719    3.0943    0.0000 C   0  0  0  0  0  0  0  0  0  0  0  0
   15.0552    1.6044    0.0000 C   0  0  0  0  0  0  0  0  0  0  0  0
   11.5923   -1.4601    0.0000 C   0  0  0  0  0  0  0  0  0  0  0  0
    9.8602   -1.4601    0.0000 C   0  0  0  0  0  0  0  0  0  0  0  0
    8.9663   -2.9948    0.0000 C   0  0  0  0  0  0  0  0  0  0  0  0
   12.4862   -0.9255    0.0000 C   0  0  0  0  0  0  0  0  0  0  0  0
   15.0321    3.6043    0.0000 C   0  0  0  0  0  0  0  0  0  0  0  0
   15.9154    2.1144    0.0000 C   0  0  0  0  0  0  0  0  0  0  0  0
   13.3233    1.5844    0.0000 C   0  0  0  0  0  0  0  0  0  0  0  0
   12.4746    0.0745    0.0000 C   0  0  0  0  0  0  0  0  0  0  0  0
    8.0602   -1.4393    0.0000 C   0  0  0  0  0  0  0  0  0  0  0  0
    8.9663   -0.9255    0.0000 C   0  0  0  0  0  0  0  0  0  0  0  0
   12.4862   -2.9948    0.0000 C   0  0  0  0  0  0  0  0  0  0  0  0
   13.3923   -1.4393    0.0000 C   0  0  0  0  0  0  0  0  0  0  0  0
   13.3923   -2.4809    0.0000 C   0  0  0  0  0  0  0  0  0  0  0  0
   12.4515    2.0743    0.0000 C   0  0  0  0  0  0  0  0  0  0  0  0
   11.6029    0.5644    0.0000 C   0  0  0  0  0  0  0  0  0  0  0  0
   11.5913    1.5643    0.0000 C   0  0  0  0  0  0  0  0  0  0  0  0
    3.3353   -3.4741    0.0000 H   0  0  0  0  0  0  0  0  0  0  0  0
    4.1324   -3.4710    0.0000 H   0  0  0  0  0  0  0  0  0  0  0  0
    5.2033   -1.5996    0.0000 H   0  0  0  0  0  0  0  0  0  0  0  0
    4.8021   -0.9109    0.0000 H   0  0  0  0  0  0  0  0  0  0  0  0
    2.3260   -2.1930    0.0000 H   0  0  0  0  0  0  0  0  0  0  0  0
    3.1862   -0.6897    0.0000 H   0  0  0  0  0  0  0  0  0  0  0  0
    5.0674   -3.4674    0.0000 H   0  0  0  0  0  0  0  0  0  0  0  0
    5.8644   -3.4644    0.0000 H   0  0  0  0  0  0  0  0  0  0  0  0
    4.3405    0.0047    0.0000 H   0  0  0  0  0  0  0  0  0  0  0  0
    1.6879   -2.4686    0.0000 H   0  0  0  0  0  0  0  0  0  0  0  0
    3.7181    0.6223    0.0000 H   0  0  0  0  0  0  0  0  0  0  0  0
    3.1005    0.0000    0.0000 H   0  0  0  0  0  0  0  0  0  0  0  0
    1.4643   -3.3164    0.0000 H   0  0  0  0  0  0  0  0  0  0  0  0
    2.3121   -3.5400    0.0000 H   0  0  0  0  0  0  0  0  0  0  0  0
   10.3277   -3.4351    0.0000 H   0  0  0  0  0  0  0  0  0  0  0  0
   11.1248   -3.4351    0.0000 H   0  0  0  0  0  0  0  0  0  0  0  0
    7.1985   -3.6043    0.0000 H   0  0  0  0  0  0  0  0  0  0  0  0
   13.9531    3.6744    0.0000 H   0  0  0  0  0  0  0  0  0  0  0  0
   14.6622    1.1249    0.0000 H   0  0  0  0  0  0  0  0  0  0  0  0
   15.4592    1.1341    0.0000 H   0  0  0  0  0  0  0  0  0  0  0  0
   13.5626    2.9796    0.0000 H   0  0  0  0  0  0  0  0  0  0  0  0
    8.9734   -3.6148    0.0000 H   0  0  0  0  0  0  0  0  0  0  0  0
   16.1342    1.5343    0.0000 H   0  0  0  0  0  0  0  0  0  0  0  0
   16.5247    2.2291    0.0000 H   0  0  0  0  0  0  0  0  0  0  0  0
   15.4251    4.0838    0.0000 H   0  0  0  0  0  0  0  0  0  0  0  0
   14.6281    4.0746    0.0000 H   0  0  0  0  0  0  0  0  0  0  0  0
    7.5245   -1.1272    0.0000 H   0  0  0  0  0  0  0  0  0  0  0  0
    8.9734   -0.3055    0.0000 H   0  0  0  0  0  0  0  0  0  0  0  0
   12.4790   -3.6148    0.0000 H   0  0  0  0  0  0  0  0  0  0  0  0
   13.9280   -1.1272    0.0000 H   0  0  0  0  0  0  0  0  0  0  0  0
   13.9280   -2.7930    0.0000 H   0  0  0  0  0  0  0  0  0  0  0  0
   12.4443    2.6943    0.0000 H   0  0  0  0  0  0  0  0  0  0  0  0
   11.0696    0.2482    0.0000 H   0  0  0  0  0  0  0  0  0  0  0  0
  1 24  1  0  0  0  0
  1 25  1  0  0  0  0
  2 12  1  0  0  0  0
  2 13  1  0  0  0  0
  3 28  1  0  0  0  0
  3 29  1  0  0  0  0
  4 30  1  0  0  0  0
  4 31  1  0  0  0  0
  5 17  2  0  0  0  0
  6 39  2  0  0  0  0
  7 10  1  0  0  0  0
  7 11  1  0  0  0  0
  7 14  1  0  0  0  0
  8 17  1  0  0  0  0
  8 21  1  0  0  0  0
  8 56  1  0  0  0  0
  9 22  1  0  0  0  0
  9 23  1  0  0  0  0
  9 30  1  0  0  0  0
 10 13  1  0  0  0  0
 10 42  1  0  0  0  0
 10 43  1  0  0  0  0
 11 12  1  0  0  0  0
 11 40  1  0  0  0  0
 11 41  1  0  0  0  0
 12 16  1  6  0  0  0
 12 44  1  0  0  0  0
 13 15  1  6  0  0  0
 13 45  1  0  0  0  0
 14 17  1  0  0  0  0
 14 46  1  0  0  0  0
 14 47  1  0  0  0  0
 15 48  1  0  0  0  0
 15 50  1  0  0  0  0
 15 51  1  0  0  0  0
 16 49  1  0  0  0  0
 16 52  1  0  0  0  0
 16 53  1  0  0  0  0
 18 19  1  0  0  0  0
 18 20  1  0  0  0  0
 18 54  1  0  0  0  0
 18 55  1  0  0  0  0
 19 25  2  0  0  0  0
 19 26  1  0  0  0  0
 20 24  2  0  0  0  0
 20 34  1  0  0  0  0
 21 26  2  0  0  0  0
 21 32  1  0  0  0  0
 22 28  1  0  0  0  0
 22 57  1  0  0  0  0
 22 60  1  0  0  0  0
 23 29  1  0  0  0  0
 23 58  1  0  0  0  0
 23 59  1  0  0  0  0
 24 27  1  0  0  0  0
 25 33  1  0  0  0  0
 26 61  1  0  0  0  0
 27 31  1  0  0  0  0
 27 35  2  0  0  0  0
 28 64  1  0  0  0  0
 28 65  1  0  0  0  0
 29 62  1  0  0  0  0
 29 63  1  0  0  0  0
 30 37  2  0  0  0  0
 31 38  2  0  0  0  0
 32 33  2  0  0  0  0
 32 66  1  0  0  0  0
 33 67  1  0  0  0  0
 34 36  2  0  0  0  0
 34 68  1  0  0  0  0
 35 36  1  0  0  0  0
 35 69  1  0  0  0  0
 36 70  1  0  0  0  0
 37 39  1  0  0  0  0
 37 71  1  0  0  0  0
 38 39  1  0  0  0  0
 38 72  1  0  0  0  0
M  END
> <PUBCHEM_COMPOUND_CID>
15953870

> <PUBCHEM_COMPOUND_CANONICALIZED>
1

> <PUBCHEM_CACTVS_COMPLEXITY>
972

> <PUBCHEM_CACTVS_HBOND_ACCEPTOR>
8

> <PUBCHEM_CACTVS_HBOND_DONOR>
1

> <PUBCHEM_CACTVS_ROTATABLE_BOND>
5

> <PUBCHEM_CACTVS_SUBSKEYS>
AAADcfB7OABAAAAAAAAAAAAAAAAAAAAAAAA8eJECAAAAAACRQAAAHgQQAAAADBzh2AYywYPABAiIAqVSUACCCAAhKhAIiBiIbMgKZiLgsbmfMAhk1AH46UeQwOAOAAQCQAAEAAAACASAAAgAAAAAAAAAAA==

> <PUBCHEM_IUPAC_OPENEYE_NAME>
2-[(2S,6R)-2,6-dimethylmorpholin-4-yl]-N-[5-(6-morpholino-4-oxo-pyran-2-yl)-9H-thioxanthen-2-yl]acetamide

> <PUBCHEM_IUPAC_CAS_NAME>
2-[(2S,6R)-2,6-dimethyl-4-morpholinyl]-N-[5-[6-(4-morpholinyl)-4-oxo-2-pyranyl]-9H-thioxanthen-2-yl]acetamide

> <PUBCHEM_IUPAC_NAME>
2-[(2S,6R)-2,6-dimethylmorpholin-4-yl]-N-[5-(6-morpholin-4-yl-4-oxopyran-2-yl)-9H-thioxanthen-2-yl]acetamide

> <PUBCHEM_IUPAC_SYSTEMATIC_NAME>
2-[(2S,6R)-2,6-dimethylmorpholin-4-yl]-N-[5-(6-morpholin-4-yl-4-oxidanylidene-pyran-2-yl)-9H-thioxanthen-2-yl]ethanamide

> <PUBCHEM_IUPAC_TRADITIONAL_NAME>
2-[(2S,6R)-2,6-dimethylmorpholino]-N-[5-(4-keto-6-morpholino-pyran-2-yl)-9H-thioxanthen-2-yl]acetamide

> <PUBCHEM_IUPAC_INCHI>
InChI=1S/C30H33N3O5S/c1-19-16-32(17-20(2)37-19)18-28(35)31-23-6-7-27-22(13-23)12-21-4-3-5-25(30(21)39-27)26-14-24(34)15-29(38-26)33-8-10-36-11-9-33/h3-7,13-15,19-20H,8-12,16-18H2,1-2H3,(H,31,35)/t19-,20+

> <PUBCHEM_IUPAC_INCHIKEY>
SCELLOWTHJGVIC-BGYRXZFFSA-N

> <PUBCHEM_XLOGP3_AA>
3.5

> <PUBCHEM_EXACT_MASS>
547.214092

> <PUBCHEM_MOLECULAR_FORMULA>
C30H33N3O5S

> <PUBCHEM_MOLECULAR_WEIGHT>
547.66512

> <PUBCHEM_OPENEYE_CAN_SMILES>
CC1CN(CC(O1)C)CC(=O)NC2=CC3=C(C=C2)SC4=C(C=CC=C4C3)C5=CC(=O)C=C(O5)N6CCOCC6

> <PUBCHEM_OPENEYE_ISO_SMILES>
C[C@@H]1CN(C[C@@H](O1)C)CC(=O)NC2=CC3=C(C=C2)SC4=C(C=CC=C4C3)C5=CC(=O)C=C(O5)N6CCOCC6

> <PUBCHEM_CACTVS_TPSA>
106

> <PUBCHEM_MONOISOTOPIC_WEIGHT>
547.214092

> <PUBCHEM_TOTAL_CHARGE>
0

> <PUBCHEM_HEAVY_ATOM_COUNT>
39

> <PUBCHEM_ATOM_DEF_STEREO_COUNT>
2

> <PUBCHEM_ATOM_UDEF_STEREO_COUNT>
0

> <PUBCHEM_BOND_DEF_STEREO_COUNT>
0

> <PUBCHEM_BOND_UDEF_STEREO_COUNT>
0

> <PUBCHEM_ISOTOPIC_ATOM_COUNT>
0

> <PUBCHEM_COMPONENT_COUNT>
1

> <PUBCHEM_CACTVS_TAUTO_COUNT>
3

> <PUBCHEM_COORDINATE_TYPE>
1
5
255

> <PUBCHEM_BONDANNOTATIONS>
12  16  6
13  15  6
19  25  8
19  26  8
20  24  8
20  34  8
21  26  8
21  32  8
24  27  8
25  33  8
27  35  8
30  37  8
31  38  8
32  33  8
34  36  8
35  36  8
37  39  8
38  39  8
4  30  8
4  31  8

$$$$
16654980
  -OEChem-11121519512D

 50 53  0     0  0  0  0  0  0999 V2000
    4.2690    1.0600    0.0000 F   0  0  0  0  0  0  0  0  0  0  0  0
    3.2690    0.0600    0.0000 F   0  0  0  0  0  0  0  0  0  0  0  0
    5.2690    0.0600    0.0000 F   0  0  0  0  0  0  0  0  0  0  0  0
    6.8671    3.5600    0.0000 O   0  0  0  0  0  0  0  0  0  0  0  0
   10.3312   -2.4400    0.0000 O   0  0  0  0  0  0  0  0  0  0  0  0
    6.8671    1.5600    0.0000 N   0  0  0  0  0  0  0  0  0  0  0  0
    8.5991   -1.4400    0.0000 N   0  0  0  0  0  0  0  0  0  0  0  0
    7.7331    0.0600    0.0000 N   0  0  0  0  0  0  0  0  0  0  0  0
    6.8671   -1.4400    0.0000 N   0  0  0  0  0  0  0  0  0  0  0  0
    4.2690   -2.9400    0.0000 N   0  0  0  0  0  0  0  0  0  0  0  0
    2.5369   -2.9400    0.0000 N   0  0  0  0  0  0  0  0  0  0  0  0
    6.0010    2.0600    0.0000 C   0  0  0  0  0  0  0  0  0  0  0  0
    7.7331    2.0600    0.0000 C   0  0  0  0  0  0  0  0  0  0  0  0
    9.4651   -0.9400    0.0000 C   0  0  0  0  0  0  0  0  0  0  0  0
    8.5991   -2.4400    0.0000 C   0  0  0  0  0  0  0  0  0  0  0  0
    6.8671    0.5600    0.0000 C   0  0  0  0  0  0  0  0  0  0  0  0
    6.0010    3.0600    0.0000 C   0  0  0  0  0  0  0  0  0  0  0  0
    7.7331    3.0600    0.0000 C   0  0  0  0  0  0  0  0  0  0  0  0
    7.7331   -0.9400    0.0000 C   0  0  0  0  0  0  0  0  0  0  0  0
   10.3312   -1.4400    0.0000 C   0  0  0  0  0  0  0  0  0  0  0  0
    9.4651   -2.9400    0.0000 C   0  0  0  0  0  0  0  0  0  0  0  0
    6.0010    0.0600    0.0000 C   0  0  0  0  0  0  0  0  0  0  0  0
    6.0010   -0.9400    0.0000 C   0  0  0  0  0  0  0  0  0  0  0  0
    5.1350   -1.4400    0.0000 C   0  0  0  0  0  0  0  0  0  0  0  0
    4.2690   -0.9400    0.0000 C   0  0  0  0  0  0  0  0  0  0  0  0
    5.1350   -2.4400    0.0000 C   0  0  0  0  0  0  0  0  0  0  0  0
    3.4030   -1.4400    0.0000 C   0  0  0  0  0  0  0  0  0  0  0  0
    4.2690    0.0600    0.0000 C   0  0  0  0  0  0  0  0  0  0  0  0
    3.4030   -2.4400    0.0000 C   0  0  0  0  0  0  0  0  0  0  0  0
    5.3905    2.1677    0.0000 H   0  0  0  0  0  0  0  0  0  0  0  0
    5.7890    1.4774    0.0000 H   0  0  0  0  0  0  0  0  0  0  0  0
    7.9451    1.4774    0.0000 H   0  0  0  0  0  0  0  0  0  0  0  0
    8.3437    2.1677    0.0000 H   0  0  0  0  0  0  0  0  0  0  0  0
    9.8637   -0.4651    0.0000 H   0  0  0  0  0  0  0  0  0  0  0  0
    9.0666   -0.4651    0.0000 H   0  0  0  0  0  0  0  0  0  0  0  0
    7.9885   -2.3323    0.0000 H   0  0  0  0  0  0  0  0  0  0  0  0
    8.3871   -3.0226    0.0000 H   0  0  0  0  0  0  0  0  0  0  0  0
    5.7890    3.6426    0.0000 H   0  0  0  0  0  0  0  0  0  0  0  0
    5.3905    2.9523    0.0000 H   0  0  0  0  0  0  0  0  0  0  0  0
    8.3437    2.9523    0.0000 H   0  0  0  0  0  0  0  0  0  0  0  0
    7.9451    3.6426    0.0000 H   0  0  0  0  0  0  0  0  0  0  0  0
    9.0666   -3.4150    0.0000 H   0  0  0  0  0  0  0  0  0  0  0  0
   10.9417   -1.5477    0.0000 H   0  0  0  0  0  0  0  0  0  0  0  0
   10.5432   -0.8574    0.0000 H   0  0  0  0  0  0  0  0  0  0  0  0
    9.8637   -3.4150    0.0000 H   0  0  0  0  0  0  0  0  0  0  0  0
    5.4641    0.3700    0.0000 H   0  0  0  0  0  0  0  0  0  0  0  0
    5.6720   -2.7500    0.0000 H   0  0  0  0  0  0  0  0  0  0  0  0
    2.8660   -1.1300    0.0000 H   0  0  0  0  0  0  0  0  0  0  0  0
    2.5369   -3.5600    0.0000 H   0  0  0  0  0  0  0  0  0  0  0  0
    2.0000   -2.6300    0.0000 H   0  0  0  0  0  0  0  0  0  0  0  0
  1 28  1  0  0  0  0
  2 28  1  0  0  0  0
  3 28  1  0  0  0  0
  4 17  1  0  0  0  0
  4 18  1  0  0  0  0
  5 20  1  0  0  0  0
  5 21  1  0  0  0  0
  6 12  1  0  0  0  0
  6 13  1  0  0  0  0
  6 16  1  0  0  0  0
  7 14  1  0  0  0  0
  7 15  1  0  0  0  0
  7 19  1  0  0  0  0
  8 16  2  0  0  0  0
  8 19  1  0  0  0  0
  9 19  2  0  0  0  0
  9 23  1  0  0  0  0
 10 26  1  0  0  0  0
 10 29  2  0  0  0  0
 11 29  1  0  0  0  0
 11 49  1  0  0  0  0
 11 50  1  0  0  0  0
 12 17  1  0  0  0  0
 12 30  1  0  0  0  0
 12 31  1  0  0  0  0
 13 18  1  0  0  0  0
 13 32  1  0  0  0  0
 13 33  1  0  0  0  0
 14 20  1  0  0  0  0
 14 34  1  0  0  0  0
 14 35  1  0  0  0  0
 15 21  1  0  0  0  0
 15 36  1  0  0  0  0
 15 37  1  0  0  0  0
 16 22  1  0  0  0  0
 17 38  1  0  0  0  0
 17 39  1  0  0  0  0
 18 40  1  0  0  0  0
 18 41  1  0  0  0  0
 20 43  1  0  0  0  0
 20 44  1  0  0  0  0
 21 42  1  0  0  0  0
 21 45  1  0  0  0  0
 22 23  2  0  0  0  0
 22 46  1  0  0  0  0
 23 24  1  0  0  0  0
 24 25  1  0  0  0  0
 24 26  2  0  0  0  0
 25 27  2  0  0  0  0
 25 28  1  0  0  0  0
 26 47  1  0  0  0  0
 27 29  1  0  0  0  0
 27 48  1  0  0  0  0
M  END
> <PUBCHEM_COMPOUND_CID>
16654980

> <PUBCHEM_COMPOUND_CANONICALIZED>
1

> <PUBCHEM_CACTVS_COMPLEXITY>
530

> <PUBCHEM_CACTVS_HBOND_ACCEPTOR>
11

> <PUBCHEM_CACTVS_HBOND_DONOR>
1

> <PUBCHEM_CACTVS_ROTATABLE_BOND>
3

> <PUBCHEM_CACTVS_SUBSKEYS>
AAADceB7sYAAAAAAAAAAAAAAAAAAAAAAAAAsWLFgAAAAAAAB4AAAHwAQAAAADAjhnhY9sJdIFACgAzZnZACCgCkxAqAB2CA4ZJiKKOLA2NGHJAhokALYyCcQgAAOgAAAAAAAAAAAAAAAAAAAAAAAAAAAAA==

> <PUBCHEM_IUPAC_OPENEYE_NAME>
5-(2,6-dimorpholinopyrimidin-4-yl)-4-(trifluoromethyl)pyridin-2-amine

> <PUBCHEM_IUPAC_CAS_NAME>
5-[2,6-bis(4-morpholinyl)-4-pyrimidinyl]-4-(trifluoromethyl)-2-pyridinamine

> <PUBCHEM_IUPAC_NAME>
5-(2,6-dimorpholin-4-ylpyrimidin-4-yl)-4-(trifluoromethyl)pyridin-2-amine

> <PUBCHEM_IUPAC_SYSTEMATIC_NAME>
5-(2,6-dimorpholin-4-ylpyrimidin-4-yl)-4-(trifluoromethyl)pyridin-2-amine

> <PUBCHEM_IUPAC_TRADITIONAL_NAME>
[5-(2,6-dimorpholinopyrimidin-4-yl)-4-(trifluoromethyl)-2-pyridyl]amine

> <PUBCHEM_IUPAC_INCHI>
InChI=1S/C18H21F3N6O2/c19-18(20,21)13-9-15(22)23-11-12(13)14-10-16(26-1-5-28-6-2-26)25-17(24-14)27-3-7-29-8-4-27/h9-11H,1-8H2,(H2,22,23)

> <PUBCHEM_IUPAC_INCHIKEY>
CWHUFRVAEUJCEF-UHFFFAOYSA-N

> <PUBCHEM_XLOGP3_AA>
1.5

> <PUBCHEM_EXACT_MASS>
410.167809

> <PUBCHEM_MOLECULAR_FORMULA>
C18H21F3N6O2

> <PUBCHEM_MOLECULAR_WEIGHT>
410.39355

> <PUBCHEM_OPENEYE_CAN_SMILES>
C1COCCN1C2=NC(=NC(=C2)C3=CN=C(C=C3C(F)(F)F)N)N4CCOCC4

> <PUBCHEM_OPENEYE_ISO_SMILES>
C1COCCN1C2=NC(=NC(=C2)C3=CN=C(C=C3C(F)(F)F)N)N4CCOCC4

> <PUBCHEM_CACTVS_TPSA>
89.6

> <PUBCHEM_MONOISOTOPIC_WEIGHT>
410.167809

> <PUBCHEM_TOTAL_CHARGE>
0

> <PUBCHEM_HEAVY_ATOM_COUNT>
29

> <PUBCHEM_ATOM_DEF_STEREO_COUNT>
0

> <PUBCHEM_ATOM_UDEF_STEREO_COUNT>
0

> <PUBCHEM_BOND_DEF_STEREO_COUNT>
0

> <PUBCHEM_BOND_UDEF_STEREO_COUNT>
0

> <PUBCHEM_ISOTOPIC_ATOM_COUNT>
0

> <PUBCHEM_COMPONENT_COUNT>
1

> <PUBCHEM_CACTVS_TAUTO_COUNT>
6

> <PUBCHEM_COORDINATE_TYPE>
1
5
255

> <PUBCHEM_BONDANNOTATIONS>
10  26  8
10  29  8
16  22  8
22  23  8
24  25  8
24  26  8
25  27  8
27  29  8
8  16  8
8  19  8
9  19  8
9  23  8

$$$$
16659841
  -OEChem-11121519512D

 38 40  0     1  0  0  0  0  0999 V2000
    2.8644    2.6739    0.0000 Cl  0  0  0  0  0  0  0  0  0  0  0  0
   10.6587   -0.8261    0.0000 F   0  0  0  0  0  0  0  0  0  0  0  0
    6.3285    0.6739    0.0000 N   0  0  0  0  0  0  0  0  0  0  0  0
    2.8644    0.6739    0.0000 N   0  0  0  0  0  0  0  0  0  0  0  0
    4.5965    0.6739    0.0000 N   0  0  0  0  0  0  0  0  0  0  0  0
    8.9266    1.1739    0.0000 N   0  0  0  0  0  0  0  0  0  0  0  0
    8.0606   -0.3261    0.0000 N   0  0  0  0  0  0  0  0  0  0  0  0
    5.4625    2.1739    0.0000 N   0  0  0  0  0  0  0  0  0  0  0  0
    2.3644   -1.8649    0.0000 N   0  0  0  0  0  0  0  0  0  0  0  0
    2.0554   -0.9139    0.0000 N   0  0  0  0  0  0  0  0  0  0  0  0
    7.1946    1.1739    0.0000 C   0  0  1  0  0  0  0  0  0  0  0  0
    7.1946    2.1739    0.0000 C   0  0  0  0  0  0  0  0  0  0  0  0
    8.0606    0.6739    0.0000 C   0  0  0  0  0  0  0  0  0  0  0  0
    5.4625    1.1739    0.0000 C   0  0  0  0  0  0  0  0  0  0  0  0
    3.7304    1.1739    0.0000 C   0  0  0  0  0  0  0  0  0  0  0  0
    2.8644   -0.3261    0.0000 C   0  0  0  0  0  0  0  0  0  0  0  0
    3.3644   -1.8649    0.0000 C   0  0  0  0  0  0  0  0  0  0  0  0
    3.6734   -0.9139    0.0000 C   0  0  0  0  0  0  0  0  0  0  0  0
    3.7304    2.1739    0.0000 C   0  0  0  0  0  0  0  0  0  0  0  0
    4.5965    2.6739    0.0000 C   0  0  0  0  0  0  0  0  0  0  0  0
    3.9522   -2.6739    0.0000 C   0  0  0  0  0  0  0  0  0  0  0  0
    9.7926    0.6739    0.0000 C   0  0  0  0  0  0  0  0  0  0  0  0
    8.9266   -0.8261    0.0000 C   0  0  0  0  0  0  0  0  0  0  0  0
    9.7926   -0.3261    0.0000 C   0  0  0  0  0  0  0  0  0  0  0  0
    7.1946    0.5539    0.0000 H   0  0  0  0  0  0  0  0  0  0  0  0
    6.3285    0.0539    0.0000 H   0  0  0  0  0  0  0  0  0  0  0  0
    7.8146    2.1739    0.0000 H   0  0  0  0  0  0  0  0  0  0  0  0
    7.1946    2.7939    0.0000 H   0  0  0  0  0  0  0  0  0  0  0  0
    6.5746    2.1739    0.0000 H   0  0  0  0  0  0  0  0  0  0  0  0
    2.3275    0.9839    0.0000 H   0  0  0  0  0  0  0  0  0  0  0  0
    4.2631   -0.7223    0.0000 H   0  0  0  0  0  0  0  0  0  0  0  0
    2.0000   -2.3665    0.0000 H   0  0  0  0  0  0  0  0  0  0  0  0
    4.5965    3.2939    0.0000 H   0  0  0  0  0  0  0  0  0  0  0  0
    3.4506   -3.0384    0.0000 H   0  0  0  0  0  0  0  0  0  0  0  0
    4.3166   -3.1755    0.0000 H   0  0  0  0  0  0  0  0  0  0  0  0
    4.4538   -2.3095    0.0000 H   0  0  0  0  0  0  0  0  0  0  0  0
   10.3296    0.9839    0.0000 H   0  0  0  0  0  0  0  0  0  0  0  0
    8.9266   -1.4461    0.0000 H   0  0  0  0  0  0  0  0  0  0  0  0
  1 19  1  0  0  0  0
  2 24  1  0  0  0  0
 11  3  1  1  0  0  0
  3 14  1  0  0  0  0
  3 26  1  0  0  0  0
  4 15  1  0  0  0  0
  4 16  1  0  0  0  0
  4 30  1  0  0  0  0
  5 14  1  0  0  0  0
  5 15  2  0  0  0  0
  6 13  1  0  0  0  0
  6 22  2  0  0  0  0
  7 13  2  0  0  0  0
  7 23  1  0  0  0  0
  8 14  2  0  0  0  0
  8 20  1  0  0  0  0
  9 10  1  0  0  0  0
  9 17  1  0  0  0  0
  9 32  1  0  0  0  0
 10 16  2  0  0  0  0
 11 12  1  0  0  0  0
 11 13  1  0  0  0  0
 11 25  1  0  0  0  0
 12 27  1  0  0  0  0
 12 28  1  0  0  0  0
 12 29  1  0  0  0  0
 15 19  1  0  0  0  0
 16 18  1  0  0  0  0
 17 18  2  0  0  0  0
 17 21  1  0  0  0  0
 18 31  1  0  0  0  0
 19 20  2  0  0  0  0
 20 33  1  0  0  0  0
 21 34  1  0  0  0  0
 21 35  1  0  0  0  0
 21 36  1  0  0  0  0
 22 24  1  0  0  0  0
 22 37  1  0  0  0  0
 23 24  2  0  0  0  0
 23 38  1  0  0  0  0
M  END
> <PUBCHEM_COMPOUND_CID>
16659841

> <PUBCHEM_COMPOUND_CANONICALIZED>
1

> <PUBCHEM_CACTVS_COMPLEXITY>
397

> <PUBCHEM_CACTVS_HBOND_ACCEPTOR>
8

> <PUBCHEM_CACTVS_HBOND_DONOR>
3

> <PUBCHEM_CACTVS_ROTATABLE_BOND>
5

> <PUBCHEM_CACTVS_SUBSKEYS>
AAADccBzwQAEAAAAAAAAAAAAAAAAAWAAAAAsWAAAAAAAAAAB+AAAHQIYAAAACCrBFyw/sJbrEACiATZnZACQhCsxA6AVeaA4ZBiAaMBAycBUhAhYGALAQCAAAAAAAAAAAAAAAAAAAAAAAAAAAAAAAAAAAA==

> <PUBCHEM_IUPAC_OPENEYE_NAME>
5-chloro-N2-[(1S)-1-(5-fluoropyrimidin-2-yl)ethyl]-N4-(5-methyl-1H-pyrazol-3-yl)pyrimidine-2,4-diamine

> <PUBCHEM_IUPAC_CAS_NAME>
5-chloro-N2-[(1S)-1-(5-fluoro-2-pyrimidinyl)ethyl]-N4-(5-methyl-1H-pyrazol-3-yl)pyrimidine-2,4-diamine

> <PUBCHEM_IUPAC_NAME>
5-chloro-2-N-[(1S)-1-(5-fluoropyrimidin-2-yl)ethyl]-4-N-(5-methyl-1H-pyrazol-3-yl)pyrimidine-2,4-diamine

> <PUBCHEM_IUPAC_SYSTEMATIC_NAME>
5-chloranyl-N2-[(1S)-1-(5-fluoranylpyrimidin-2-yl)ethyl]-N4-(5-methyl-1H-pyrazol-3-yl)pyrimidine-2,4-diamine

> <PUBCHEM_IUPAC_TRADITIONAL_NAME>
[5-chloro-2-[[(1S)-1-(5-fluoropyrimidin-2-yl)ethyl]amino]pyrimidin-4-yl]-(5-methyl-1H-pyrazol-3-yl)amine

> <PUBCHEM_IUPAC_INCHI>
InChI=1S/C14H14ClFN8/c1-7-3-11(24-23-7)21-13-10(15)6-19-14(22-13)20-8(2)12-17-4-9(16)5-18-12/h3-6,8H,1-2H3,(H3,19,20,21,22,23,24)/t8-/m0/s1

> <PUBCHEM_IUPAC_INCHIKEY>
PDOQBOJDRPLBQU-QMMMGPOBSA-N

> <PUBCHEM_XLOGP3_AA>
2.4

> <PUBCHEM_EXACT_MASS>
348.101398

> <PUBCHEM_MOLECULAR_FORMULA>
C14H14ClFN8

> <PUBCHEM_MOLECULAR_WEIGHT>
348.765963

> <PUBCHEM_OPENEYE_CAN_SMILES>
CC1=CC(=NN1)NC2=NC(=NC=C2Cl)NC(C)C3=NC=C(C=N3)F

> <PUBCHEM_OPENEYE_ISO_SMILES>
CC1=CC(=NN1)NC2=NC(=NC=C2Cl)N[C@@H](C)C3=NC=C(C=N3)F

> <PUBCHEM_CACTVS_TPSA>
104

> <PUBCHEM_MONOISOTOPIC_WEIGHT>
348.101398

> <PUBCHEM_TOTAL_CHARGE>
0

> <PUBCHEM_HEAVY_ATOM_COUNT>
24

> <PUBCHEM_ATOM_DEF_STEREO_COUNT>
1

> <PUBCHEM_ATOM_UDEF_STEREO_COUNT>
0

> <PUBCHEM_BOND_DEF_STEREO_COUNT>
0

> <PUBCHEM_BOND_UDEF_STEREO_COUNT>
0

> <PUBCHEM_ISOTOPIC_ATOM_COUNT>
0

> <PUBCHEM_COMPONENT_COUNT>
1

> <PUBCHEM_CACTVS_TAUTO_COUNT>
57

> <PUBCHEM_COORDINATE_TYPE>
1
5
255

> <PUBCHEM_BONDANNOTATIONS>
10  16  8
15  19  8
16  18  8
17  18  8
19  20  8
22  24  8
23  24  8
11  3  5
5  14  8
5  15  8
6  13  8
6  22  8
7  13  8
7  23  8
8  14  8
8  20  8
9  10  8
9  17  8

$$$$
17754438
  -OEChem-11121519512D

 44 48  0     0  0  0  0  0  0999 V2000
    2.8948   -3.9251    0.0000 O   0  0  0  0  0  0  0  0  0  0  0  0
    5.4609    2.8505    0.0000 N   0  0  0  0  0  0  0  0  0  0  0  0
    2.9505   -1.2799    0.0000 N   0  0  0  0  0  0  0  0  0  0  0  0
    4.2425    1.4948    0.0000 N   0  0  0  0  0  0  0  0  0  0  0  0
    5.3579    3.8392    0.0000 N   0  0  0  0  0  0  0  0  0  0  0  0
    2.0000   -0.9693    0.0000 N   0  0  0  0  0  0  0  0  0  0  0  0
    2.9068    2.9834    0.0000 N   0  0  0  0  0  0  0  0  0  0  0  0
    4.3861    4.0484    0.0000 N   0  0  0  0  0  0  0  0  0  0  0  0
    9.8190    4.3851    0.0000 N   0  0  0  0  0  0  0  0  0  0  0  0
    6.3270    2.3505    0.0000 C   0  0  0  0  0  0  0  0  0  0  0  0
    7.1930    2.8505    0.0000 C   0  0  0  0  0  0  0  0  0  0  0  0
    4.5531    2.4454    0.0000 C   0  0  0  0  0  0  0  0  0  0  0  0
    2.9533    0.3381    0.0000 C   0  0  0  0  0  0  0  0  0  0  0  0
    8.0590    2.3505    0.0000 C   0  0  0  0  0  0  0  0  0  0  0  0
    3.2640    1.2886    0.0000 C   0  0  0  0  0  0  0  0  0  0  0  0
    8.9250    2.8505    0.0000 C   0  0  0  0  0  0  0  0  0  0  0  0
    3.8853    3.1897    0.0000 C   0  0  0  0  0  0  0  0  0  0  0  0
    7.1930    3.8505    0.0000 C   0  0  0  0  0  0  0  0  0  0  0  0
    3.5397   -0.4719    0.0000 C   0  0  0  0  0  0  0  0  0  0  0  0
    8.9250    3.8505    0.0000 C   0  0  0  0  0  0  0  0  0  0  0  0
    3.2579   -2.2315    0.0000 C   0  0  0  0  0  0  0  0  0  0  0  0
    8.0590    4.3505    0.0000 C   0  0  0  0  0  0  0  0  0  0  0  0
    2.0017    0.0307    0.0000 C   0  0  0  0  0  0  0  0  0  0  0  0
    2.5961    2.0329    0.0000 C   0  0  0  0  0  0  0  0  0  0  0  0
    9.8190    2.3158    0.0000 C   0  0  0  0  0  0  0  0  0  0  0  0
    2.5875   -2.9735    0.0000 C   0  0  0  0  0  0  0  0  0  0  0  0
   10.7250    2.8296    0.0000 C   0  0  0  0  0  0  0  0  0  0  0  0
   10.7250    3.8713    0.0000 C   0  0  0  0  0  0  0  0  0  0  0  0
    5.9284    1.8755    0.0000 H   0  0  0  0  0  0  0  0  0  0  0  0
    6.7255    1.8755    0.0000 H   0  0  0  0  0  0  0  0  0  0  0  0
    8.0590    1.7305    0.0000 H   0  0  0  0  0  0  0  0  0  0  0  0
    6.6560    4.1605    0.0000 H   0  0  0  0  0  0  0  0  0  0  0  0
    4.1597   -0.4730    0.0000 H   0  0  0  0  0  0  0  0  0  0  0  0
    3.6388   -2.7207    0.0000 H   0  0  0  0  0  0  0  0  0  0  0  0
    3.8058   -1.9414    0.0000 H   0  0  0  0  0  0  0  0  0  0  0  0
    8.0590    4.9705    0.0000 H   0  0  0  0  0  0  0  0  0  0  0  0
    1.5008    0.3960    0.0000 H   0  0  0  0  0  0  0  0  0  0  0  0
    1.9895    1.9051    0.0000 H   0  0  0  0  0  0  0  0  0  0  0  0
    9.8118    1.6958    0.0000 H   0  0  0  0  0  0  0  0  0  0  0  0
    2.2066   -2.4843    0.0000 H   0  0  0  0  0  0  0  0  0  0  0  0
    2.0396   -3.2636    0.0000 H   0  0  0  0  0  0  0  0  0  0  0  0
   11.2608    2.5176    0.0000 H   0  0  0  0  0  0  0  0  0  0  0  0
   11.2608    4.1834    0.0000 H   0  0  0  0  0  0  0  0  0  0  0  0
    2.4792   -4.3851    0.0000 H   0  0  0  0  0  0  0  0  0  0  0  0
  1 26  1  0  0  0  0
  1 44  1  0  0  0  0
  2  5  1  0  0  0  0
  2 10  1  0  0  0  0
  2 12  1  0  0  0  0
  3  6  1  0  0  0  0
  3 19  1  0  0  0  0
  3 21  1  0  0  0  0
  4 12  2  0  0  0  0
  4 15  1  0  0  0  0
  5  8  2  0  0  0  0
  6 23  2  0  0  0  0
  7 17  2  0  0  0  0
  7 24  1  0  0  0  0
  8 17  1  0  0  0  0
  9 20  1  0  0  0  0
  9 28  2  0  0  0  0
 10 11  1  0  0  0  0
 10 29  1  0  0  0  0
 10 30  1  0  0  0  0
 11 14  2  0  0  0  0
 11 18  1  0  0  0  0
 12 17  1  0  0  0  0
 13 15  1  0  0  0  0
 13 19  2  0  0  0  0
 13 23  1  0  0  0  0
 14 16  1  0  0  0  0
 14 31  1  0  0  0  0
 15 24  2  0  0  0  0
 16 20  2  0  0  0  0
 16 25  1  0  0  0  0
 18 22  2  0  0  0  0
 18 32  1  0  0  0  0
 19 33  1  0  0  0  0
 20 22  1  0  0  0  0
 21 26  1  0  0  0  0
 21 34  1  0  0  0  0
 21 35  1  0  0  0  0
 22 36  1  0  0  0  0
 23 37  1  0  0  0  0
 24 38  1  0  0  0  0
 25 27  2  0  0  0  0
 25 39  1  0  0  0  0
 26 40  1  0  0  0  0
 26 41  1  0  0  0  0
 27 28  1  0  0  0  0
 27 42  1  0  0  0  0
 28 43  1  0  0  0  0
M  END
> <PUBCHEM_COMPOUND_CID>
17754438

> <PUBCHEM_COMPOUND_CANONICALIZED>
1

> <PUBCHEM_CACTVS_COMPLEXITY>
524

> <PUBCHEM_CACTVS_HBOND_ACCEPTOR>
7

> <PUBCHEM_CACTVS_HBOND_DONOR>
1

> <PUBCHEM_CACTVS_ROTATABLE_BOND>
5

> <PUBCHEM_CACTVS_SUBSKEYS>
AAADceB74AAAAAAAAAAAAAAAAAAAAWLAAAA8WIAAAAAAAFix/gAAHgAICAAADAjhnwY98P4IEgCiAzZnZACShC8xkqAd2CA4dJiKeOLA2dGUpAhoiALYyCcQgMAOCAACAAACAAAQAAQAAAQAAAAAAAAAAA==

> <PUBCHEM_IUPAC_OPENEYE_NAME>
2-[4-[3-(6-quinolylmethyl)triazolo[4,5-b]pyrazin-5-yl]pyrazol-1-yl]ethanol

> <PUBCHEM_IUPAC_CAS_NAME>
2-[4-[3-(6-quinolinylmethyl)-5-triazolo[4,5-b]pyrazinyl]-1-pyrazolyl]ethanol

> <PUBCHEM_IUPAC_NAME>
2-[4-[3-(quinolin-6-ylmethyl)triazolo[4,5-b]pyrazin-5-yl]pyrazol-1-yl]ethanol

> <PUBCHEM_IUPAC_SYSTEMATIC_NAME>
2-[4-[3-(quinolin-6-ylmethyl)-[1,2,3]triazolo[4,5-b]pyrazin-5-yl]pyrazol-1-yl]ethanol

> <PUBCHEM_IUPAC_TRADITIONAL_NAME>
2-[4-[3-(6-quinolylmethyl)triazolo[4,5-b]pyrazin-5-yl]pyrazol-1-yl]ethanol

> <PUBCHEM_IUPAC_INCHI>
InChI=1S/C19H16N8O/c28-7-6-26-12-15(9-22-26)17-10-21-18-19(23-17)27(25-24-18)11-13-3-4-16-14(8-13)2-1-5-20-16/h1-5,8-10,12,28H,6-7,11H2

> <PUBCHEM_IUPAC_INCHIKEY>
PDMUGYOXRHVNMO-UHFFFAOYSA-N

> <PUBCHEM_XLOGP3_AA>
0.7

> <PUBCHEM_EXACT_MASS>
372.144707

> <PUBCHEM_MOLECULAR_FORMULA>
C19H16N8O

> <PUBCHEM_MOLECULAR_WEIGHT>
372.38334

> <PUBCHEM_OPENEYE_CAN_SMILES>
C1=CC2=C(C=CC(=C2)CN3C4=NC(=CN=C4N=N3)C5=CN(N=C5)CCO)N=C1

> <PUBCHEM_OPENEYE_ISO_SMILES>
C1=CC2=C(C=CC(=C2)CN3C4=NC(=CN=C4N=N3)C5=CN(N=C5)CCO)N=C1

> <PUBCHEM_CACTVS_TPSA>
107

> <PUBCHEM_MONOISOTOPIC_WEIGHT>
372.144707

> <PUBCHEM_TOTAL_CHARGE>
0

> <PUBCHEM_HEAVY_ATOM_COUNT>
28

> <PUBCHEM_ATOM_DEF_STEREO_COUNT>
0

> <PUBCHEM_ATOM_UDEF_STEREO_COUNT>
0

> <PUBCHEM_BOND_DEF_STEREO_COUNT>
0

> <PUBCHEM_BOND_UDEF_STEREO_COUNT>
0

> <PUBCHEM_ISOTOPIC_ATOM_COUNT>
0

> <PUBCHEM_COMPONENT_COUNT>
1

> <PUBCHEM_CACTVS_TAUTO_COUNT>
1

> <PUBCHEM_COORDINATE_TYPE>
1
5
255

> <PUBCHEM_BONDANNOTATIONS>
11  14  8
11  18  8
12  17  8
13  19  8
13  23  8
14  16  8
15  24  8
16  20  8
16  25  8
18  22  8
2  12  8
2  5  8
20  22  8
25  27  8
27  28  8
3  19  8
3  6  8
4  12  8
4  15  8
5  8  8
6  23  8
7  17  8
7  24  8
8  17  8
9  20  8
9  28  8

$$$$
17755052
  -OEChem-11121519512D

 62 67  0     0  0  0  0  0  0999 V2000
   10.8600   -3.2990    0.0000 S   0  0  0  0  0  0  0  0  0  0  0  0
    7.2764    0.9698    0.0000 S   0  0  0  0  0  0  0  0  0  0  0  0
   11.7260   -2.7990    0.0000 O   0  0  0  0  0  0  0  0  0  0  0  0
    9.9939   -3.7990    0.0000 O   0  0  0  0  0  0  0  0  0  0  0  0
    5.4641    4.1651    0.0000 O   0  0  0  0  0  0  0  0  0  0  0  0
    9.3600   -0.7010    0.0000 N   0  0  0  0  0  0  0  0  0  0  0  0
   10.3600   -2.4330    0.0000 N   0  0  0  0  0  0  0  0  0  0  0  0
    5.4641    2.1651    0.0000 N   0  0  0  0  0  0  0  0  0  0  0  0
    4.5981    0.6651    0.0000 N   0  0  0  0  0  0  0  0  0  0  0  0
    5.4641   -0.8349    0.0000 N   0  0  0  0  0  0  0  0  0  0  0  0
    3.0752   -3.3068    0.0000 N   0  0  0  0  0  0  0  0  0  0  0  0
    4.0640   -3.4098    0.0000 N   0  0  0  0  0  0  0  0  0  0  0  0
    8.8600   -1.5670    0.0000 C   0  0  0  0  0  0  0  0  0  0  0  0
   10.3600   -0.7010    0.0000 C   0  0  0  0  0  0  0  0  0  0  0  0
   10.8600   -1.5670    0.0000 C   0  0  0  0  0  0  0  0  0  0  0  0
    9.3600   -2.4330    0.0000 C   0  0  0  0  0  0  0  0  0  0  0  0
    8.8600    0.1651    0.0000 C   0  0  0  0  0  0  0  0  0  0  0  0
    7.8600    0.1651    0.0000 C   0  0  0  0  0  0  0  0  0  0  0  0
    6.3301    0.6651    0.0000 C   0  0  0  0  0  0  0  0  0  0  0  0
    5.4641    1.1651    0.0000 C   0  0  0  0  0  0  0  0  0  0  0  0
    7.2764   -0.6397    0.0000 C   0  0  0  0  0  0  0  0  0  0  0  0
    6.3301   -0.3349    0.0000 C   0  0  0  0  0  0  0  0  0  0  0  0
   11.3600   -4.1651    0.0000 C   0  0  0  0  0  0  0  0  0  0  0  0
    4.5981    2.6651    0.0000 C   0  0  0  0  0  0  0  0  0  0  0  0
    6.3301    2.6651    0.0000 C   0  0  0  0  0  0  0  0  0  0  0  0
    6.3301    3.6651    0.0000 C   0  0  0  0  0  0  0  0  0  0  0  0
    4.5981    3.6651    0.0000 C   0  0  0  0  0  0  0  0  0  0  0  0
    4.5981   -0.3349    0.0000 C   0  0  0  0  0  0  0  0  0  0  0  0
    3.7320   -0.8349    0.0000 C   0  0  0  0  0  0  0  0  0  0  0  0
    3.7320   -1.8349    0.0000 C   0  0  0  0  0  0  0  0  0  0  0  0
    2.8660   -0.3349    0.0000 C   0  0  0  0  0  0  0  0  0  0  0  0
    2.8660   -2.3349    0.0000 C   0  0  0  0  0  0  0  0  0  0  0  0
    4.4691   -2.5020    0.0000 C   0  0  0  0  0  0  0  0  0  0  0  0
    2.0000   -0.8349    0.0000 C   0  0  0  0  0  0  0  0  0  0  0  0
    2.0000   -1.8349    0.0000 C   0  0  0  0  0  0  0  0  0  0  0  0
   10.9426   -0.4889    0.0000 H   0  0  0  0  0  0  0  0  0  0  0  0
   10.2523   -0.0904    0.0000 H   0  0  0  0  0  0  0  0  0  0  0  0
    8.3850   -1.1685    0.0000 H   0  0  0  0  0  0  0  0  0  0  0  0
    8.3850   -1.9655    0.0000 H   0  0  0  0  0  0  0  0  0  0  0  0
   11.3349   -1.9655    0.0000 H   0  0  0  0  0  0  0  0  0  0  0  0
   11.3349   -1.1685    0.0000 H   0  0  0  0  0  0  0  0  0  0  0  0
    8.7774   -2.6451    0.0000 H   0  0  0  0  0  0  0  0  0  0  0  0
    9.4676   -3.0436    0.0000 H   0  0  0  0  0  0  0  0  0  0  0  0
    9.4426    0.3771    0.0000 H   0  0  0  0  0  0  0  0  0  0  0  0
    8.7523    0.7756    0.0000 H   0  0  0  0  0  0  0  0  0  0  0  0
    7.4690   -1.2290    0.0000 H   0  0  0  0  0  0  0  0  0  0  0  0
   10.8230   -4.4751    0.0000 H   0  0  0  0  0  0  0  0  0  0  0  0
   11.6700   -4.7020    0.0000 H   0  0  0  0  0  0  0  0  0  0  0  0
   11.8969   -3.8551    0.0000 H   0  0  0  0  0  0  0  0  0  0  0  0
    6.5422    2.0824    0.0000 H   0  0  0  0  0  0  0  0  0  0  0  0
    6.9407    2.7727    0.0000 H   0  0  0  0  0  0  0  0  0  0  0  0
    3.9875    2.7727    0.0000 H   0  0  0  0  0  0  0  0  0  0  0  0
    4.3860    2.0824    0.0000 H   0  0  0  0  0  0  0  0  0  0  0  0
    6.9407    3.5574    0.0000 H   0  0  0  0  0  0  0  0  0  0  0  0
    6.5422    4.2477    0.0000 H   0  0  0  0  0  0  0  0  0  0  0  0
    4.3860    4.2477    0.0000 H   0  0  0  0  0  0  0  0  0  0  0  0
    3.9875    3.5574    0.0000 H   0  0  0  0  0  0  0  0  0  0  0  0
    2.8660    0.2851    0.0000 H   0  0  0  0  0  0  0  0  0  0  0  0
    5.0757   -2.3742    0.0000 H   0  0  0  0  0  0  0  0  0  0  0  0
    1.4631   -0.5249    0.0000 H   0  0  0  0  0  0  0  0  0  0  0  0
    1.4631   -2.1449    0.0000 H   0  0  0  0  0  0  0  0  0  0  0  0
    2.6612   -3.7682    0.0000 H   0  0  0  0  0  0  0  0  0  0  0  0
  1  3  2  0  0  0  0
  1  4  2  0  0  0  0
  1  7  1  0  0  0  0
  1 23  1  0  0  0  0
  2 18  1  0  0  0  0
  2 19  1  0  0  0  0
  5 26  1  0  0  0  0
  5 27  1  0  0  0  0
  6 13  1  0  0  0  0
  6 14  1  0  0  0  0
  6 17  1  0  0  0  0
  7 15  1  0  0  0  0
  7 16  1  0  0  0  0
  8 20  1  0  0  0  0
  8 24  1  0  0  0  0
  8 25  1  0  0  0  0
  9 20  2  0  0  0  0
  9 28  1  0  0  0  0
 10 22  1  0  0  0  0
 10 28  2  0  0  0  0
 11 12  1  0  0  0  0
 11 32  1  0  0  0  0
 11 62  1  0  0  0  0
 12 33  2  0  0  0  0
 13 16  1  0  0  0  0
 13 38  1  0  0  0  0
 13 39  1  0  0  0  0
 14 15  1  0  0  0  0
 14 36  1  0  0  0  0
 14 37  1  0  0  0  0
 15 40  1  0  0  0  0
 15 41  1  0  0  0  0
 16 42  1  0  0  0  0
 16 43  1  0  0  0  0
 17 18  1  0  0  0  0
 17 44  1  0  0  0  0
 17 45  1  0  0  0  0
 18 21  2  0  0  0  0
 19 20  1  0  0  0  0
 19 22  2  0  0  0  0
 21 22  1  0  0  0  0
 21 46  1  0  0  0  0
 23 47  1  0  0  0  0
 23 48  1  0  0  0  0
 23 49  1  0  0  0  0
 24 27  1  0  0  0  0
 24 52  1  0  0  0  0
 24 53  1  0  0  0  0
 25 26  1  0  0  0  0
 25 50  1  0  0  0  0
 25 51  1  0  0  0  0
 26 54  1  0  0  0  0
 26 55  1  0  0  0  0
 27 56  1  0  0  0  0
 27 57  1  0  0  0  0
 28 29  1  0  0  0  0
 29 30  2  0  0  0  0
 29 31  1  0  0  0  0
 30 32  1  0  0  0  0
 30 33  1  0  0  0  0
 31 34  2  0  0  0  0
 31 58  1  0  0  0  0
 32 35  2  0  0  0  0
 33 59  1  0  0  0  0
 34 35  1  0  0  0  0
 34 60  1  0  0  0  0
 35 61  1  0  0  0  0
M  END
> <PUBCHEM_COMPOUND_CID>
17755052

> <PUBCHEM_COMPOUND_CANONICALIZED>
1

> <PUBCHEM_CACTVS_COMPLEXITY>
832

> <PUBCHEM_CACTVS_HBOND_ACCEPTOR>
10

> <PUBCHEM_CACTVS_HBOND_DONOR>
1

> <PUBCHEM_CACTVS_ROTATABLE_BOND>
5

> <PUBCHEM_CACTVS_SUBSKEYS>
AAADceB7sABgAAAAAAAAAAAAAAAAAWJAAAA8WLEAAAAAAFgB/gAAHgQYQAAADAjh3wa/8fdrFAqmAzZnZHCTpKkhirBZuTw4ZJiKaKLg2dGXpAxomAL4yCcQgIAOgAAAQAASAAAAAACAACQAAAAAAAAAAA==

> <PUBCHEM_IUPAC_OPENEYE_NAME>
4-[2-(1H-indazol-4-yl)-6-[(4-methylsulfonylpiperazin-1-yl)methyl]thieno[3,2-d]pyrimidin-4-yl]morpholine

> <PUBCHEM_IUPAC_CAS_NAME>
4-[2-(1H-indazol-4-yl)-6-[(4-methylsulfonyl-1-piperazinyl)methyl]-4-thieno[3,2-d]pyrimidinyl]morpholine

> <PUBCHEM_IUPAC_NAME>
4-[2-(1H-indazol-4-yl)-6-[(4-methylsulfonylpiperazin-1-yl)methyl]thieno[3,2-d]pyrimidin-4-yl]morpholine

> <PUBCHEM_IUPAC_SYSTEMATIC_NAME>
4-[2-(1H-indazol-4-yl)-6-[(4-methylsulfonylpiperazin-1-yl)methyl]thieno[3,2-d]pyrimidin-4-yl]morpholine

> <PUBCHEM_IUPAC_TRADITIONAL_NAME>
4-[2-(1H-indazol-4-yl)-6-[(4-mesylpiperazino)methyl]thieno[3,2-d]pyrimidin-4-yl]morpholine

> <PUBCHEM_IUPAC_INCHI>
InChI=1S/C23H27N7O3S2/c1-35(31,32)30-7-5-28(6-8-30)15-16-13-20-21(34-16)23(29-9-11-33-12-10-29)26-22(25-20)17-3-2-4-19-18(17)14-24-27-19/h2-4,13-14H,5-12,15H2,1H3,(H,24,27)

> <PUBCHEM_IUPAC_INCHIKEY>
LHNIIDJUOCFXAP-UHFFFAOYSA-N

> <PUBCHEM_XLOGP3_AA>
1.6

> <PUBCHEM_EXACT_MASS>
513.16168

> <PUBCHEM_MOLECULAR_FORMULA>
C23H27N7O3S2

> <PUBCHEM_MOLECULAR_WEIGHT>
513.63558

> <PUBCHEM_OPENEYE_CAN_SMILES>
CS(=O)(=O)N1CCN(CC1)CC2=CC3=C(S2)C(=NC(=N3)C4=C5C=NNC5=CC=C4)N6CCOCC6

> <PUBCHEM_OPENEYE_ISO_SMILES>
CS(=O)(=O)N1CCN(CC1)CC2=CC3=C(S2)C(=NC(=N3)C4=C5C=NNC5=CC=C4)N6CCOCC6

> <PUBCHEM_CACTVS_TPSA>
144

> <PUBCHEM_MONOISOTOPIC_WEIGHT>
513.16168

> <PUBCHEM_TOTAL_CHARGE>
0

> <PUBCHEM_HEAVY_ATOM_COUNT>
35

> <PUBCHEM_ATOM_DEF_STEREO_COUNT>
0

> <PUBCHEM_ATOM_UDEF_STEREO_COUNT>
0

> <PUBCHEM_BOND_DEF_STEREO_COUNT>
0

> <PUBCHEM_BOND_UDEF_STEREO_COUNT>
0

> <PUBCHEM_ISOTOPIC_ATOM_COUNT>
0

> <PUBCHEM_COMPONENT_COUNT>
1

> <PUBCHEM_CACTVS_TAUTO_COUNT>
5

> <PUBCHEM_COORDINATE_TYPE>
1
5
255

> <PUBCHEM_BONDANNOTATIONS>
10  22  8
10  28  8
11  12  8
11  32  8
12  33  8
18  21  8
19  20  8
19  22  8
2  18  8
2  19  8
21  22  8
29  30  8
29  31  8
30  32  8
30  33  8
31  34  8
32  35  8
34  35  8
9  20  8
9  28  8

$$$$
23724849
  -OEChem-11121519512D

151154  0     1  0  0  0  0  0999 V2000
    8.2865   -2.6318    0.0000 O   0  0  0  0  0  0  0  0  0  0  0  0
   10.1658   -1.9477    0.0000 O   0  0  0  0  0  0  0  0  0  0  0  0
    9.0811    3.4502    0.0000 O   0  0  0  0  0  0  0  0  0  0  0  0
   13.5434   -0.0888    0.0000 O   0  0  0  0  0  0  0  0  0  0  0  0
   11.6916    0.5792    0.0000 O   0  0  0  0  0  0  0  0  0  0  0  0
   10.2055    1.9192    0.0000 O   0  0  0  0  0  0  0  0  0  0  0  0
    6.2526    2.2000    0.0000 O   0  0  0  0  0  0  0  0  0  0  0  0
   13.0194    2.3509    0.0000 O   0  0  0  0  0  0  0  0  0  0  0  0
    6.2335   -4.3006    0.0000 O   0  0  0  0  0  0  0  0  0  0  0  0
   10.8113    1.9112    0.0000 O   0  0  0  0  0  0  0  0  0  0  0  0
   11.6377   -0.1040    0.0000 O   0  0  0  0  0  0  0  0  0  0  0  0
    2.3100    2.1183    0.0000 O   0  0  0  0  0  0  0  0  0  0  0  0
    4.9410    1.7939    0.0000 O   0  0  0  0  0  0  0  0  0  0  0  0
    3.1511   -0.0888    0.0000 O   0  0  0  0  0  0  0  0  0  0  0  0
   11.8113    2.9112    0.0000 N   0  0  0  0  0  0  0  0  0  0  0  0
    8.8075    0.3227    0.0000 C   0  0  1  0  0  0  0  0  0  0  0  0
    9.5734   -0.3201    0.0000 C   0  0  0  0  0  0  0  0  0  0  0  0
    7.8678   -0.0194    0.0000 C   0  0  0  0  0  0  0  0  0  0  0  0
    8.9811    1.3075    0.0000 C   0  0  0  0  0  0  0  0  0  0  0  0
    9.3998   -1.3049    0.0000 C   0  0  2  0  0  0  0  0  0  0  0  0
    8.4602   -1.6470    0.0000 C   0  0  1  0  0  0  0  0  0  0  0  0
    7.6941   -1.0042    0.0000 C   0  0  0  0  0  0  0  0  0  0  0  0
    8.2151    1.9502    0.0000 C   0  0  2  0  0  0  0  0  0  0  0  0
    8.2151    2.9502    0.0000 C   0  0  2  0  0  0  0  0  0  0  0  0
    7.3491    1.4502    0.0000 C   0  0  0  0  0  0  0  0  0  0  0  0
    7.3491    3.4502    0.0000 C   0  0  0  0  0  0  0  0  0  0  0  0
   10.9453    3.4112    0.0000 C   0  0  2  0  0  0  0  0  0  0  0  0
   13.5512    0.9292    0.0000 C   0  0  1  0  0  0  0  0  0  0  0  0
   12.6774    0.4112    0.0000 C   0  0  2  0  0  0  0  0  0  0  0  0
    7.3468   -2.9738    0.0000 C   0  0  0  0  0  0  0  0  0  0  0  0
   13.5434   -1.0888    0.0000 C   0  0  3  0  0  0  0  0  0  0  0  0
   14.4329    0.4247    0.0000 C   0  0  0  0  0  0  0  0  0  0  0  0
   10.0793    2.9112    0.0000 C   0  0  0  0  0  0  0  0  0  0  0  0
   10.9453    4.4112    0.0000 C   0  0  0  0  0  0  0  0  0  0  0  0
   14.4289   -0.5911    0.0000 C   0  0  0  0  0  0  0  0  0  0  0  0
    9.9922   -2.9325    0.0000 C   0  0  0  0  0  0  0  0  0  0  0  0
    6.3831    3.1914    0.0000 C   0  0  0  0  0  0  0  0  0  0  0  0
   12.6774    3.4112    0.0000 C   0  0  0  0  0  0  0  0  0  0  0  0
   11.8113    4.9112    0.0000 C   0  0  0  0  0  0  0  0  0  0  0  0
   12.6774    4.4112    0.0000 C   0  0  0  0  0  0  0  0  0  0  0  0
   12.6774   -1.5888    0.0000 C   0  0  0  0  0  0  0  0  0  0  0  0
   12.6774    1.4112    0.0000 C   0  0  0  0  0  0  0  0  0  0  0  0
    5.5171    3.6914    0.0000 C   0  0  2  0  0  0  0  0  0  0  0  0
   11.8113    1.9112    0.0000 C   0  0  0  0  0  0  0  0  0  0  0  0
   14.1880    1.7002    0.0000 C   0  0  0  0  0  0  0  0  0  0  0  0
    7.1732   -3.9586    0.0000 C   0  0  0  0  0  0  0  0  0  0  0  0
   11.8113   -1.0888    0.0000 C   0  0  1  0  0  0  0  0  0  0  0  0
    5.2583    4.6574    0.0000 C   0  0  0  0  0  0  0  0  0  0  0  0
    5.0171    2.8254    0.0000 C   0  0  0  0  0  0  0  0  0  0  0  0
   10.9453   -1.5888    0.0000 C   0  0  0  0  0  0  0  0  0  0  0  0
    4.0171    2.8254    0.0000 C   0  0  0  0  0  0  0  0  0  0  0  0
    3.3100    2.1183    0.0000 C   0  0  2  0  0  0  0  0  0  0  0  0
   10.9453   -2.5888    0.0000 C   0  0  0  0  0  0  0  0  0  0  0  0
   10.0793   -1.0888    0.0000 C   0  0  0  0  0  0  0  0  0  0  0  0
    4.0171    1.4112    0.0000 C   0  0  2  0  0  0  0  0  0  0  0  0
    3.6344    3.7493    0.0000 C   0  0  0  0  0  0  0  0  0  0  0  0
   10.6980    0.2380    0.0000 C   0  0  0  0  0  0  0  0  0  0  0  0
    4.0171    0.4112    0.0000 C   0  0  0  0  0  0  0  0  0  0  0  0
    4.8831   -0.0888    0.0000 C   0  0  1  0  0  0  0  0  0  0  0  0
    9.2133   -1.5888    0.0000 C   0  0  0  0  0  0  0  0  0  0  0  0
    5.7492    0.4112    0.0000 C   0  0  0  0  0  0  0  0  0  0  0  0
    6.6152   -0.0888    0.0000 C   0  0  1  0  0  0  0  0  0  0  0  0
    4.8831   -1.0888    0.0000 C   0  0  0  0  0  0  0  0  0  0  0  0
    8.3472   -1.0888    0.0000 C   0  0  0  0  0  0  0  0  0  0  0  0
    6.6152   -1.0888    0.0000 C   0  0  0  0  0  0  0  0  0  0  0  0
    7.1152    0.7772    0.0000 C   0  0  0  0  0  0  0  0  0  0  0  0
    7.4812   -1.5888    0.0000 C   0  0  0  0  0  0  0  0  0  0  0  0
    5.7343    1.1851    0.0000 C   0  0  0  0  0  0  0  0  0  0  0  0
    9.3901    0.5347    0.0000 H   0  0  0  0  0  0  0  0  0  0  0  0
   10.1560   -0.5322    0.0000 H   0  0  0  0  0  0  0  0  0  0  0  0
    9.8834    0.2168    0.0000 H   0  0  0  0  0  0  0  0  0  0  0  0
    7.7601    0.5912    0.0000 H   0  0  0  0  0  0  0  0  0  0  0  0
    7.2478   -0.0194    0.0000 H   0  0  0  0  0  0  0  0  0  0  0  0
    9.5637    1.0954    0.0000 H   0  0  0  0  0  0  0  0  0  0  0  0
    9.2911    1.8444    0.0000 H   0  0  0  0  0  0  0  0  0  0  0  0
    9.9824   -1.0929    0.0000 H   0  0  0  0  0  0  0  0  0  0  0  0
    8.9351   -2.0455    0.0000 H   0  0  0  0  0  0  0  0  0  0  0  0
    7.1115   -0.7921    0.0000 H   0  0  0  0  0  0  0  0  0  0  0  0
    7.3841   -1.5411    0.0000 H   0  0  0  0  0  0  0  0  0  0  0  0
    7.6782    2.2602    0.0000 H   0  0  0  0  0  0  0  0  0  0  0  0
    8.9512    2.5253    0.0000 H   0  0  0  0  0  0  0  0  0  0  0  0
    7.0391    1.9872    0.0000 H   0  0  0  0  0  0  0  0  0  0  0  0
    6.8121    1.1402    0.0000 H   0  0  0  0  0  0  0  0  0  0  0  0
    7.6591    0.9133    0.0000 H   0  0  0  0  0  0  0  0  0  0  0  0
    7.7875    3.8887    0.0000 H   0  0  0  0  0  0  0  0  0  0  0  0
    7.0391    3.9872    0.0000 H   0  0  0  0  0  0  0  0  0  0  0  0
   10.2092    3.8362    0.0000 H   0  0  0  0  0  0  0  0  0  0  0  0
   13.1481    1.4003    0.0000 H   0  0  0  0  0  0  0  0  0  0  0  0
    7.2392   -2.3632    0.0000 H   0  0  0  0  0  0  0  0  0  0  0  0
    6.7268   -2.9738    0.0000 H   0  0  0  0  0  0  0  0  0  0  0  0
   13.9641   -1.8274    0.0000 H   0  0  0  0  0  0  0  0  0  0  0  0
   15.0433    0.3163    0.0000 H   0  0  0  0  0  0  0  0  0  0  0  0
   14.6442    1.0076    0.0000 H   0  0  0  0  0  0  0  0  0  0  0  0
   14.6357   -1.1756    0.0000 H   0  0  0  0  0  0  0  0  0  0  0  0
   15.0402   -0.4874    0.0000 H   0  0  0  0  0  0  0  0  0  0  0  0
   10.7333    4.9938    0.0000 H   0  0  0  0  0  0  0  0  0  0  0  0
   10.3347    4.3035    0.0000 H   0  0  0  0  0  0  0  0  0  0  0  0
    9.3816   -2.8249    0.0000 H   0  0  0  0  0  0  0  0  0  0  0  0
    9.8845   -3.5431    0.0000 H   0  0  0  0  0  0  0  0  0  0  0  0
   10.6028   -3.0402    0.0000 H   0  0  0  0  0  0  0  0  0  0  0  0
   12.8894    2.8286    0.0000 H   0  0  0  0  0  0  0  0  0  0  0  0
   13.2879    3.5189    0.0000 H   0  0  0  0  0  0  0  0  0  0  0  0
   12.2099    5.3861    0.0000 H   0  0  0  0  0  0  0  0  0  0  0  0
   11.4128    5.3861    0.0000 H   0  0  0  0  0  0  0  0  0  0  0  0
   13.2879    4.3035    0.0000 H   0  0  0  0  0  0  0  0  0  0  0  0
   12.8894    4.9938    0.0000 H   0  0  0  0  0  0  0  0  0  0  0  0
   12.2788   -2.0638    0.0000 H   0  0  0  0  0  0  0  0  0  0  0  0
   13.0759   -2.0638    0.0000 H   0  0  0  0  0  0  0  0  0  0  0  0
    6.0090    4.0689    0.0000 H   0  0  0  0  0  0  0  0  0  0  0  0
   14.6660    1.3054    0.0000 H   0  0  0  0  0  0  0  0  0  0  0  0
   14.5829    2.1782    0.0000 H   0  0  0  0  0  0  0  0  0  0  0  0
   13.7100    2.0951    0.0000 H   0  0  0  0  0  0  0  0  0  0  0  0
    7.2809   -4.5692    0.0000 H   0  0  0  0  0  0  0  0  0  0  0  0
    7.7932   -3.9586    0.0000 H   0  0  0  0  0  0  0  0  0  0  0  0
   12.3192   -0.7332    0.0000 H   0  0  0  0  0  0  0  0  0  0  0  0
   11.2144    0.9749    0.0000 H   0  0  0  0  0  0  0  0  0  0  0  0
    5.8572    4.8178    0.0000 H   0  0  0  0  0  0  0  0  0  0  0  0
    5.0978    5.2562    0.0000 H   0  0  0  0  0  0  0  0  0  0  0  0
    4.6594    4.4969    0.0000 H   0  0  0  0  0  0  0  0  0  0  0  0
    5.3271    2.2885    0.0000 H   0  0  0  0  0  0  0  0  0  0  0  0
    6.1258   -4.9112    0.0000 H   0  0  0  0  0  0  0  0  0  0  0  0
    3.0727    1.5455    0.0000 H   0  0  0  0  0  0  0  0  0  0  0  0
   10.3253   -2.5888    0.0000 H   0  0  0  0  0  0  0  0  0  0  0  0
   10.9453   -3.2088    0.0000 H   0  0  0  0  0  0  0  0  0  0  0  0
   11.5653   -2.5888    0.0000 H   0  0  0  0  0  0  0  0  0  0  0  0
   10.1869   -0.4782    0.0000 H   0  0  0  0  0  0  0  0  0  0  0  0
    4.5326    1.0667    0.0000 H   0  0  0  0  0  0  0  0  0  0  0  0
    4.2072    3.9866    0.0000 H   0  0  0  0  0  0  0  0  0  0  0  0
    3.3972    4.3221    0.0000 H   0  0  0  0  0  0  0  0  0  0  0  0
    3.0616    3.5120    0.0000 H   0  0  0  0  0  0  0  0  0  0  0  0
   10.9100    0.8206    0.0000 H   0  0  0  0  0  0  0  0  0  0  0  0
   10.1154    0.4501    0.0000 H   0  0  0  0  0  0  0  0  0  0  0  0
   10.4859   -0.3446    0.0000 H   0  0  0  0  0  0  0  0  0  0  0  0
    4.3462   -0.3988    0.0000 H   0  0  0  0  0  0  0  0  0  0  0  0
    9.2133   -2.2088    0.0000 H   0  0  0  0  0  0  0  0  0  0  0  0
    6.1477    0.8861    0.0000 H   0  0  0  0  0  0  0  0  0  0  0  0
    5.3506    0.8861    0.0000 H   0  0  0  0  0  0  0  0  0  0  0  0
    2.0000    2.6552    0.0000 H   0  0  0  0  0  0  0  0  0  0  0  0
    7.2141   -0.2493    0.0000 H   0  0  0  0  0  0  0  0  0  0  0  0
    4.2631   -1.0888    0.0000 H   0  0  0  0  0  0  0  0  0  0  0  0
    4.8831   -1.7088    0.0000 H   0  0  0  0  0  0  0  0  0  0  0  0
    5.5031   -1.0888    0.0000 H   0  0  0  0  0  0  0  0  0  0  0  0
    8.3472   -0.4688    0.0000 H   0  0  0  0  0  0  0  0  0  0  0  0
    6.0782   -1.3988    0.0000 H   0  0  0  0  0  0  0  0  0  0  0  0
    7.6521    0.4672    0.0000 H   0  0  0  0  0  0  0  0  0  0  0  0
    7.4252    1.3142    0.0000 H   0  0  0  0  0  0  0  0  0  0  0  0
    6.5782    1.0872    0.0000 H   0  0  0  0  0  0  0  0  0  0  0  0
    7.4812   -2.2088    0.0000 H   0  0  0  0  0  0  0  0  0  0  0  0
    5.3569    0.6932    0.0000 H   0  0  0  0  0  0  0  0  0  0  0  0
    6.2262    0.8077    0.0000 H   0  0  0  0  0  0  0  0  0  0  0  0
    6.1118    1.6770    0.0000 H   0  0  0  0  0  0  0  0  0  0  0  0
 21  1  1  6  0  0  0
  1 30  1  0  0  0  0
 20  2  1  1  0  0  0
  2 36  1  0  0  0  0
  3 24  1  0  0  0  0
  3 33  1  0  0  0  0
  4 29  1  0  0  0  0
  4 31  1  0  0  0  0
 29  5  1  6  0  0  0
  5116  1  0  0  0  0
  6 33  2  0  0  0  0
  7 37  2  0  0  0  0
  8 42  2  0  0  0  0
  9 46  1  0  0  0  0
  9121  1  0  0  0  0
 10 44  2  0  0  0  0
 47 11  1  1  0  0  0
 11 57  1  0  0  0  0
 52 12  1  6  0  0  0
 12138  1  0  0  0  0
 55 13  1  1  0  0  0
 13 68  1  0  0  0  0
 14 58  2  0  0  0  0
 15 27  1  0  0  0  0
 15 38  1  0  0  0  0
 15 44  1  0  0  0  0
 16 17  1  0  0  0  0
 16 18  1  0  0  0  0
 16 19  1  1  0  0  0
 16 69  1  0  0  0  0
 17 20  1  0  0  0  0
 17 70  1  0  0  0  0
 17 71  1  0  0  0  0
 18 22  1  0  0  0  0
 18 72  1  0  0  0  0
 18 73  1  0  0  0  0
 19 23  1  0  0  0  0
 19 74  1  0  0  0  0
 19 75  1  0  0  0  0
 20 21  1  0  0  0  0
 20 76  1  0  0  0  0
 21 22  1  0  0  0  0
 21 77  1  0  0  0  0
 22 78  1  0  0  0  0
 22 79  1  0  0  0  0
 23 24  1  0  0  0  0
 23 25  1  1  0  0  0
 23 80  1  0  0  0  0
 24 26  1  0  0  0  0
 24 81  1  1  0  0  0
 25 82  1  0  0  0  0
 25 83  1  0  0  0  0
 25 84  1  0  0  0  0
 26 37  1  0  0  0  0
 26 85  1  0  0  0  0
 26 86  1  0  0  0  0
 27 33  1  0  0  0  0
 27 34  1  0  0  0  0
 27 87  1  1  0  0  0
 28 29  1  0  0  0  0
 28 32  1  0  0  0  0
 28 45  1  6  0  0  0
 28 88  1  0  0  0  0
 29 42  1  0  0  0  0
 30 46  1  0  0  0  0
 30 89  1  0  0  0  0
 30 90  1  0  0  0  0
 31 35  1  0  0  0  0
 31 41  1  0  0  0  0
 31 91  1  0  0  0  0
 32 35  1  0  0  0  0
 32 92  1  0  0  0  0
 32 93  1  0  0  0  0
 34 39  1  0  0  0  0
 34 96  1  0  0  0  0
 34 97  1  0  0  0  0
 35 94  1  0  0  0  0
 35 95  1  0  0  0  0
 36 98  1  0  0  0  0
 36 99  1  0  0  0  0
 36100  1  0  0  0  0
 37 43  1  0  0  0  0
 38 40  1  0  0  0  0
 38101  1  0  0  0  0
 38102  1  0  0  0  0
 39 40  1  0  0  0  0
 39103  1  0  0  0  0
 39104  1  0  0  0  0
 40105  1  0  0  0  0
 40106  1  0  0  0  0
 41 47  1  0  0  0  0
 41107  1  0  0  0  0
 41108  1  0  0  0  0
 42 44  1  0  0  0  0
 43 48  1  1  0  0  0
 43 49  1  0  0  0  0
 43109  1  0  0  0  0
 45110  1  0  0  0  0
 45111  1  0  0  0  0
 45112  1  0  0  0  0
 46113  1  0  0  0  0
 46114  1  0  0  0  0
 47 50  1  0  0  0  0
 47115  1  0  0  0  0
 48117  1  0  0  0  0
 48118  1  0  0  0  0
 48119  1  0  0  0  0
 49 51  2  0  0  0  0
 49120  1  0  0  0  0
 50 53  1  0  0  0  0
 50 54  2  0  0  0  0
 51 52  1  0  0  0  0
 51 56  1  0  0  0  0
 52 55  1  0  0  0  0
 52122  1  0  0  0  0
 53123  1  0  0  0  0
 53124  1  0  0  0  0
 53125  1  0  0  0  0
 54 60  1  0  0  0  0
 54126  1  0  0  0  0
 55 58  1  0  0  0  0
 55127  1  0  0  0  0
 56128  1  0  0  0  0
 56129  1  0  0  0  0
 56130  1  0  0  0  0
 57131  1  0  0  0  0
 57132  1  0  0  0  0
 57133  1  0  0  0  0
 58 59  1  0  0  0  0
 59 61  1  0  0  0  0
 59 63  1  1  0  0  0
 59134  1  0  0  0  0
 60 64  2  0  0  0  0
 60135  1  0  0  0  0
 61 62  1  0  0  0  0
 61136  1  0  0  0  0
 61137  1  0  0  0  0
 62 65  1  0  0  0  0
 62 66  1  6  0  0  0
 62139  1  0  0  0  0
 63140  1  0  0  0  0
 63141  1  0  0  0  0
 63142  1  0  0  0  0
 64 67  1  0  0  0  0
 64143  1  0  0  0  0
 65 67  2  0  0  0  0
 65144  1  0  0  0  0
 66145  1  0  0  0  0
 66146  1  0  0  0  0
 66147  1  0  0  0  0
 67148  1  0  0  0  0
 68149  1  0  0  0  0
 68150  1  0  0  0  0
 68151  1  0  0  0  0
M  END
> <PUBCHEM_COMPOUND_CID>
23724849

> <PUBCHEM_COMPOUND_CANONICALIZED>
1

> <PUBCHEM_CACTVS_COMPLEXITY>
1810

> <PUBCHEM_CACTVS_HBOND_ACCEPTOR>
14

> <PUBCHEM_CACTVS_HBOND_DONOR>
3

> <PUBCHEM_CACTVS_ROTATABLE_BOND>
9

> <PUBCHEM_CACTVS_SUBSKEYS>
AAADcfB+PAAAAAAAAAAAAAAAAAAAAAAAAAA8SIAAAAAAAAAAAAAAHgAACAAADTzhgAYCCAMABgCIAqHSGAIAAAAgAAAICAHIAAgbFBYAoSQHUAAH5gCfsAOY6PSOAAAAAAAAAABAAAIAAACAAAAAAAAAAA==

> <PUBCHEM_IUPAC_INCHI>
InChI=1S/C53H83NO14/c1-32-16-12-11-13-17-33(2)44(63-8)30-40-21-19-38(7)53(62,68-40)50(59)51(60)54-23-15-14-18-41(54)52(61)67-45(35(4)28-39-20-22-43(66-25-24-55)46(29-39)64-9)31-42(56)34(3)27-37(6)48(58)49(65-10)47(57)36(5)26-32/h11-13,16-17,27,32,34-36,38-41,43-46,48-49,55,58,62H,14-15,18-26,28-31H2,1-10H3/b13-11+,16-12+,33-17+,37-27+/t32-,34-,35-,36-,38-,39+,40?,41+,43-,44+,45+,46-,48-,49+,53-/m1/s1

> <PUBCHEM_IUPAC_INCHIKEY>
HKVAMNSJSFKALM-LNNUTQBZSA-N

> <PUBCHEM_XLOGP3_AA>
5.9

> <PUBCHEM_EXACT_MASS>
957.581356

> <PUBCHEM_MOLECULAR_FORMULA>
C53H83NO14

> <PUBCHEM_MOLECULAR_WEIGHT>
958.22442

> <PUBCHEM_OPENEYE_CAN_SMILES>
CC1CCC2CC(C(=CC=CC=CC(CC(C(=O)C(C(C(=CC(C(=O)CC(OC(=O)C3CCCCN3C(=O)C(=O)C1(O2)O)C(C)CC4CCC(C(C4)OC)OCCO)C)C)O)OC)C)C)C)OC

> <PUBCHEM_OPENEYE_ISO_SMILES>
C[C@@H]1CCC2C[C@@H](/C(=C/C=C/C=C/[C@H](C[C@H](C(=O)[C@@H]([C@@H](/C(=C/[C@H](C(=O)C[C@H](OC(=O)[C@@H]3CCCCN3C(=O)C(=O)[C@@]1(O2)O)[C@H](C)C[C@@H]4CC[C@H]([C@@H](C4)OC)OCCO)C)/C)O)OC)C)C)/C)OC

> <PUBCHEM_CACTVS_TPSA>
205

> <PUBCHEM_MONOISOTOPIC_WEIGHT>
957.581356

> <PUBCHEM_TOTAL_CHARGE>
0

> <PUBCHEM_HEAVY_ATOM_COUNT>
68

> <PUBCHEM_ATOM_DEF_STEREO_COUNT>
14

> <PUBCHEM_ATOM_UDEF_STEREO_COUNT>
1

> <PUBCHEM_BOND_DEF_STEREO_COUNT>
4

> <PUBCHEM_BOND_UDEF_STEREO_COUNT>
0

> <PUBCHEM_ISOTOPIC_ATOM_COUNT>
0

> <PUBCHEM_COMPONENT_COUNT>
1

> <PUBCHEM_CACTVS_TAUTO_COUNT>
15

> <PUBCHEM_COORDINATE_TYPE>
1
5
255

> <PUBCHEM_BONDANNOTATIONS>
21  1  6
47  11  5
52  12  6
55  13  5
16  19  5
20  2  5
23  25  5
24  81  5
27  87  5
28  45  6
31  91  3
43  48  5
29  5  6
59  63  5
62  66  6

$$$$
23725625
  -OEChem-11121519512D

 55 59  0     0  0  0  0  0  0999 V2000
    7.3301   -2.5000    0.0000 F   0  0  0  0  0  0  0  0  0  0  0  0
    3.8660   -3.5000    0.0000 O   0  0  0  0  0  0  0  0  0  0  0  0
    7.3301    0.5000    0.0000 O   0  0  0  0  0  0  0  0  0  0  0  0
   10.7942    3.5000    0.0000 O   0  0  0  0  0  0  0  0  0  0  0  0
    4.7320   -2.0000    0.0000 N   0  0  0  0  0  0  0  0  0  0  0  0
    6.4641   -1.0000    0.0000 N   0  0  0  0  0  0  0  0  0  0  0  0
    9.9282    1.0000    0.0000 N   0  0  0  0  0  0  0  0  0  0  0  0
    9.9282    2.0000    0.0000 N   0  0  0  0  0  0  0  0  0  0  0  0
    3.0000   -2.0000    0.0000 C   0  0  0  0  0  0  0  0  0  0  0  0
    2.5000   -1.1340    0.0000 C   0  0  0  0  0  0  0  0  0  0  0  0
    2.0000   -2.0000    0.0000 C   0  0  0  0  0  0  0  0  0  0  0  0
    3.8660   -2.5000    0.0000 C   0  0  0  0  0  0  0  0  0  0  0  0
    4.7320   -1.0000    0.0000 C   0  0  0  0  0  0  0  0  0  0  0  0
    5.5981   -2.5000    0.0000 C   0  0  0  0  0  0  0  0  0  0  0  0
    5.5981   -0.5000    0.0000 C   0  0  0  0  0  0  0  0  0  0  0  0
    6.4641   -2.0000    0.0000 C   0  0  0  0  0  0  0  0  0  0  0  0
    7.3301   -0.5000    0.0000 C   0  0  0  0  0  0  0  0  0  0  0  0
    8.1962   -1.0000    0.0000 C   0  0  0  0  0  0  0  0  0  0  0  0
    9.0622   -0.5000    0.0000 C   0  0  0  0  0  0  0  0  0  0  0  0
    9.9282   -1.0000    0.0000 C   0  0  0  0  0  0  0  0  0  0  0  0
    8.1962   -2.0000    0.0000 C   0  0  0  0  0  0  0  0  0  0  0  0
   10.7942   -0.5000    0.0000 C   0  0  0  0  0  0  0  0  0  0  0  0
    9.9282   -2.0000    0.0000 C   0  0  0  0  0  0  0  0  0  0  0  0
    9.0622   -2.5000    0.0000 C   0  0  0  0  0  0  0  0  0  0  0  0
   10.7942    0.5000    0.0000 C   0  0  0  0  0  0  0  0  0  0  0  0
   11.6603    1.0000    0.0000 C   0  0  0  0  0  0  0  0  0  0  0  0
   11.6603    2.0000    0.0000 C   0  0  0  0  0  0  0  0  0  0  0  0
   12.5542    0.4653    0.0000 C   0  0  0  0  0  0  0  0  0  0  0  0
   10.7942    2.5000    0.0000 C   0  0  0  0  0  0  0  0  0  0  0  0
   12.5542    2.5347    0.0000 C   0  0  0  0  0  0  0  0  0  0  0  0
   13.4603    0.9792    0.0000 C   0  0  0  0  0  0  0  0  0  0  0  0
   13.4603    2.0208    0.0000 C   0  0  0  0  0  0  0  0  0  0  0  0
    2.8395   -2.5989    0.0000 H   0  0  0  0  0  0  0  0  0  0  0  0
    2.9750   -0.7354    0.0000 H   0  0  0  0  0  0  0  0  0  0  0  0
    2.0250   -0.7354    0.0000 H   0  0  0  0  0  0  0  0  0  0  0  0
    1.4174   -1.7880    0.0000 H   0  0  0  0  0  0  0  0  0  0  0  0
    1.8923   -2.6106    0.0000 H   0  0  0  0  0  0  0  0  0  0  0  0
    5.1996   -2.9750    0.0000 H   0  0  0  0  0  0  0  0  0  0  0  0
    5.9966   -2.9750    0.0000 H   0  0  0  0  0  0  0  0  0  0  0  0
    4.5200   -0.4174    0.0000 H   0  0  0  0  0  0  0  0  0  0  0  0
    4.1215   -1.1077    0.0000 H   0  0  0  0  0  0  0  0  0  0  0  0
    6.6762   -2.5826    0.0000 H   0  0  0  0  0  0  0  0  0  0  0  0
    7.0747   -1.8923    0.0000 H   0  0  0  0  0  0  0  0  0  0  0  0
    5.9966   -0.0251    0.0000 H   0  0  0  0  0  0  0  0  0  0  0  0
    5.1996   -0.0251    0.0000 H   0  0  0  0  0  0  0  0  0  0  0  0
    9.0622    0.1200    0.0000 H   0  0  0  0  0  0  0  0  0  0  0  0
   11.0063   -1.0826    0.0000 H   0  0  0  0  0  0  0  0  0  0  0  0
   11.4048   -0.3923    0.0000 H   0  0  0  0  0  0  0  0  0  0  0  0
   10.4651   -2.3100    0.0000 H   0  0  0  0  0  0  0  0  0  0  0  0
    9.0622   -3.1200    0.0000 H   0  0  0  0  0  0  0  0  0  0  0  0
   12.5470   -0.1546    0.0000 H   0  0  0  0  0  0  0  0  0  0  0  0
   12.5470    3.1546    0.0000 H   0  0  0  0  0  0  0  0  0  0  0  0
    9.3913    2.3100    0.0000 H   0  0  0  0  0  0  0  0  0  0  0  0
   13.9960    0.6671    0.0000 H   0  0  0  0  0  0  0  0  0  0  0  0
   13.9960    2.3329    0.0000 H   0  0  0  0  0  0  0  0  0  0  0  0
  1 21  1  0  0  0  0
  2 12  2  0  0  0  0
  3 17  2  0  0  0  0
  4 29  2  0  0  0  0
  5 12  1  0  0  0  0
  5 13  1  0  0  0  0
  5 14  1  0  0  0  0
  6 15  1  0  0  0  0
  6 16  1  0  0  0  0
  6 17  1  0  0  0  0
  7  8  1  0  0  0  0
  7 25  2  0  0  0  0
  8 29  1  0  0  0  0
  8 53  1  0  0  0  0
  9 10  1  0  0  0  0
  9 11  1  0  0  0  0
  9 12  1  0  0  0  0
  9 33  1  0  0  0  0
 10 11  1  0  0  0  0
 10 34  1  0  0  0  0
 10 35  1  0  0  0  0
 11 36  1  0  0  0  0
 11 37  1  0  0  0  0
 13 15  1  0  0  0  0
 13 40  1  0  0  0  0
 13 41  1  0  0  0  0
 14 16  1  0  0  0  0
 14 38  1  0  0  0  0
 14 39  1  0  0  0  0
 15 44  1  0  0  0  0
 15 45  1  0  0  0  0
 16 42  1  0  0  0  0
 16 43  1  0  0  0  0
 17 18  1  0  0  0  0
 18 19  1  0  0  0  0
 18 21  2  0  0  0  0
 19 20  2  0  0  0  0
 19 46  1  0  0  0  0
 20 22  1  0  0  0  0
 20 23  1  0  0  0  0
 21 24  1  0  0  0  0
 22 25  1  0  0  0  0
 22 47  1  0  0  0  0
 22 48  1  0  0  0  0
 23 24  2  0  0  0  0
 23 49  1  0  0  0  0
 24 50  1  0  0  0  0
 25 26  1  0  0  0  0
 26 27  1  0  0  0  0
 26 28  2  0  0  0  0
 27 29  1  0  0  0  0
 27 30  2  0  0  0  0
 28 31  1  0  0  0  0
 28 51  1  0  0  0  0
 30 32  1  0  0  0  0
 30 52  1  0  0  0  0
 31 32  2  0  0  0  0
 31 54  1  0  0  0  0
 32 55  1  0  0  0  0
M  END
> <PUBCHEM_COMPOUND_CID>
23725625

> <PUBCHEM_COMPOUND_CANONICALIZED>
1

> <PUBCHEM_CACTVS_COMPLEXITY>
790

> <PUBCHEM_CACTVS_HBOND_ACCEPTOR>
5

> <PUBCHEM_CACTVS_HBOND_DONOR>
1

> <PUBCHEM_CACTVS_ROTATABLE_BOND>
4

> <PUBCHEM_CACTVS_SUBSKEYS>
AAADceB7sQAAAAAAAAAAAAAAGAAAAAAAAAA8YIEAAAAAAACBQAAAHwAYAAAADQjBmAwwAINiAACoAyFyEACSAAAkAAAaiAE4BNgIYLKAlRGUIQhgjgCIiYcYiMCOgAACAAAQAAAAAAQAACAAAAAAAAAAAA==

> <PUBCHEM_IUPAC_OPENEYE_NAME>
4-[[3-[4-(cyclopropanecarbonyl)piperazine-1-carbonyl]-4-fluoro-phenyl]methyl]-2H-phthalazin-1-one

> <PUBCHEM_IUPAC_CAS_NAME>
4-[[3-[[4-[cyclopropyl(oxo)methyl]-1-piperazinyl]-oxomethyl]-4-fluorophenyl]methyl]-2H-phthalazin-1-one

> <PUBCHEM_IUPAC_NAME>
4-[[3-[4-(cyclopropanecarbonyl)piperazine-1-carbonyl]-4-fluorophenyl]methyl]-2H-phthalazin-1-one

> <PUBCHEM_IUPAC_SYSTEMATIC_NAME>
4-[[3-(4-cyclopropylcarbonylpiperazin-1-yl)carbonyl-4-fluoranyl-phenyl]methyl]-2H-phthalazin-1-one

> <PUBCHEM_IUPAC_TRADITIONAL_NAME>
4-[3-[4-(cyclopropanecarbonyl)piperazine-1-carbonyl]-4-fluoro-benzyl]-2H-phthalazin-1-one

> <PUBCHEM_IUPAC_INCHI>
InChI=1S/C24H23FN4O3/c25-20-8-5-15(14-21-17-3-1-2-4-18(17)22(30)27-26-21)13-19(20)24(32)29-11-9-28(10-12-29)23(31)16-6-7-16/h1-5,8,13,16H,6-7,9-12,14H2,(H,27,30)

> <PUBCHEM_IUPAC_INCHIKEY>
FDLYAMZZIXQODN-UHFFFAOYSA-N

> <PUBCHEM_XLOGP3_AA>
1.9

> <PUBCHEM_EXACT_MASS>
434.175419

> <PUBCHEM_MOLECULAR_FORMULA>
C24H23FN4O3

> <PUBCHEM_MOLECULAR_WEIGHT>
434.462823

> <PUBCHEM_OPENEYE_CAN_SMILES>
C1CC1C(=O)N2CCN(CC2)C(=O)C3=C(C=CC(=C3)CC4=NNC(=O)C5=CC=CC=C54)F

> <PUBCHEM_OPENEYE_ISO_SMILES>
C1CC1C(=O)N2CCN(CC2)C(=O)C3=C(C=CC(=C3)CC4=NNC(=O)C5=CC=CC=C54)F

> <PUBCHEM_CACTVS_TPSA>
82.1

> <PUBCHEM_MONOISOTOPIC_WEIGHT>
434.175419

> <PUBCHEM_TOTAL_CHARGE>
0

> <PUBCHEM_HEAVY_ATOM_COUNT>
32

> <PUBCHEM_ATOM_DEF_STEREO_COUNT>
0

> <PUBCHEM_ATOM_UDEF_STEREO_COUNT>
0

> <PUBCHEM_BOND_DEF_STEREO_COUNT>
0

> <PUBCHEM_BOND_UDEF_STEREO_COUNT>
0

> <PUBCHEM_ISOTOPIC_ATOM_COUNT>
0

> <PUBCHEM_COMPONENT_COUNT>
1

> <PUBCHEM_CACTVS_TAUTO_COUNT>
2

> <PUBCHEM_COORDINATE_TYPE>
1
5
255

> <PUBCHEM_BONDANNOTATIONS>
18  19  8
18  21  8
19  20  8
20  23  8
21  24  8
23  24  8
25  26  8
26  27  8
26  28  8
27  29  8
27  30  8
28  31  8
30  32  8
31  32  8
7  25  8
7  8  8
8  29  8

$$$$
24856436
  -OEChem-11121519512D

 69 73  0     0  0  0  0  0  0999 V2000
   10.2243    3.4247    0.0000 O   0  0  0  0  0  0  0  0  0  0  0  0
   11.9171   -3.2692    0.0000 O   0  0  0  0  0  0  0  0  0  0  0  0
    4.5981   -2.5140    0.0000 N   0  0  0  0  0  0  0  0  0  0  0  0
    2.8660   -3.5140    0.0000 N   0  0  0  0  0  0  0  0  0  0  0  0
   11.6065   -0.7093    0.0000 N   0  0  0  0  0  0  0  0  0  0  0  0
   12.1901   -1.5140    0.0000 N   0  0  0  0  0  0  0  0  0  0  0  0
    8.0622   -0.5140    0.0000 N   0  0  0  0  0  0  0  0  0  0  0  0
    9.7942   -0.5140    0.0000 N   0  0  0  0  0  0  0  0  0  0  0  0
   11.2493    0.9856    0.0000 N   0  0  0  0  0  0  0  0  0  0  0  0
    8.9282   -2.0140    0.0000 N   0  0  0  0  0  0  0  0  0  0  0  0
    3.7320   -2.0140    0.0000 C   0  0  0  0  0  0  0  0  0  0  0  0
    4.5981   -3.5140    0.0000 C   0  0  0  0  0  0  0  0  0  0  0  0
    3.7320   -4.0140    0.0000 C   0  0  0  0  0  0  0  0  0  0  0  0
    2.8660   -2.5140    0.0000 C   0  0  0  0  0  0  0  0  0  0  0  0
    5.4641   -2.0140    0.0000 C   0  0  0  0  0  0  0  0  0  0  0  0
    2.0000   -4.0140    0.0000 C   0  0  0  0  0  0  0  0  0  0  0  0
    5.4641   -1.0140    0.0000 C   0  0  0  0  0  0  0  0  0  0  0  0
    6.3301   -2.5140    0.0000 C   0  0  0  0  0  0  0  0  0  0  0  0
   10.6603   -1.0140    0.0000 C   0  0  0  0  0  0  0  0  0  0  0  0
    7.1962   -1.0140    0.0000 C   0  0  0  0  0  0  0  0  0  0  0  0
    6.3301   -0.5140    0.0000 C   0  0  0  0  0  0  0  0  0  0  0  0
    7.1962   -2.0140    0.0000 C   0  0  0  0  0  0  0  0  0  0  0  0
   10.6603   -2.0140    0.0000 C   0  0  0  0  0  0  0  0  0  0  0  0
   10.8921    2.6804    0.0000 C   0  0  0  0  0  0  0  0  0  0  0  0
   11.9171    0.2413    0.0000 C   0  0  0  0  0  0  0  0  0  0  0  0
   11.6065   -2.3187    0.0000 C   0  0  0  0  0  0  0  0  0  0  0  0
   11.5600    1.9361    0.0000 C   0  0  0  0  0  0  0  0  0  0  0  0
   13.1901   -1.5140    0.0000 C   0  0  0  0  0  0  0  0  0  0  0  0
    8.9282   -1.0140    0.0000 C   0  0  0  0  0  0  0  0  0  0  0  0
    9.7942   -2.5140    0.0000 C   0  0  0  0  0  0  0  0  0  0  0  0
   12.8956    0.4475    0.0000 C   0  0  0  0  0  0  0  0  0  0  0  0
   11.6364    3.3482    0.0000 C   0  0  0  0  0  0  0  0  0  0  0  0
   10.1478    2.0125    0.0000 C   0  0  0  0  0  0  0  0  0  0  0  0
   12.5385    2.1423    0.0000 C   0  0  0  0  0  0  0  0  0  0  0  0
   13.2063    1.3980    0.0000 C   0  0  0  0  0  0  0  0  0  0  0  0
   13.6901   -2.3800    0.0000 C   0  0  0  0  0  0  0  0  0  0  0  0
   14.6901   -2.3800    0.0000 C   0  0  0  0  0  0  0  0  0  0  0  0
    4.1306   -1.5390    0.0000 H   0  0  0  0  0  0  0  0  0  0  0  0
    3.3335   -1.5390    0.0000 H   0  0  0  0  0  0  0  0  0  0  0  0
    4.8101   -4.0966    0.0000 H   0  0  0  0  0  0  0  0  0  0  0  0
    5.2087   -3.4063    0.0000 H   0  0  0  0  0  0  0  0  0  0  0  0
    3.3335   -4.4890    0.0000 H   0  0  0  0  0  0  0  0  0  0  0  0
    4.1306   -4.4890    0.0000 H   0  0  0  0  0  0  0  0  0  0  0  0
    2.6540   -1.9314    0.0000 H   0  0  0  0  0  0  0  0  0  0  0  0
    2.2554   -2.6217    0.0000 H   0  0  0  0  0  0  0  0  0  0  0  0
    1.6900   -3.4771    0.0000 H   0  0  0  0  0  0  0  0  0  0  0  0
    1.4631   -4.3240    0.0000 H   0  0  0  0  0  0  0  0  0  0  0  0
    2.3100   -4.5509    0.0000 H   0  0  0  0  0  0  0  0  0  0  0  0
    4.9272   -0.7040    0.0000 H   0  0  0  0  0  0  0  0  0  0  0  0
    6.3301   -3.1340    0.0000 H   0  0  0  0  0  0  0  0  0  0  0  0
    6.3301    0.1060    0.0000 H   0  0  0  0  0  0  0  0  0  0  0  0
    7.7331   -2.3240    0.0000 H   0  0  0  0  0  0  0  0  0  0  0  0
   13.7727   -1.3020    0.0000 H   0  0  0  0  0  0  0  0  0  0  0  0
   13.0824   -0.9034    0.0000 H   0  0  0  0  0  0  0  0  0  0  0  0
    8.0622    0.1060    0.0000 H   0  0  0  0  0  0  0  0  0  0  0  0
    9.7942   -3.1340    0.0000 H   0  0  0  0  0  0  0  0  0  0  0  0
   13.3097   -0.0140    0.0000 H   0  0  0  0  0  0  0  0  0  0  0  0
   12.0505    2.8868    0.0000 H   0  0  0  0  0  0  0  0  0  0  0  0
   12.0979    3.7623    0.0000 H   0  0  0  0  0  0  0  0  0  0  0  0
   11.2224    3.8097    0.0000 H   0  0  0  0  0  0  0  0  0  0  0  0
    9.7338    2.4740    0.0000 H   0  0  0  0  0  0  0  0  0  0  0  0
    9.6863    1.5985    0.0000 H   0  0  0  0  0  0  0  0  0  0  0  0
   10.5619    1.5511    0.0000 H   0  0  0  0  0  0  0  0  0  0  0  0
   12.7311    2.7316    0.0000 H   0  0  0  0  0  0  0  0  0  0  0  0
   13.8130    1.5258    0.0000 H   0  0  0  0  0  0  0  0  0  0  0  0
   13.3801   -2.9170    0.0000 H   0  0  0  0  0  0  0  0  0  0  0  0
   10.4169    4.0140    0.0000 H   0  0  0  0  0  0  0  0  0  0  0  0
   15.0001   -2.9170    0.0000 H   0  0  0  0  0  0  0  0  0  0  0  0
   15.0001   -1.8431    0.0000 H   0  0  0  0  0  0  0  0  0  0  0  0
  1 24  1  0  0  0  0
  1 67  1  0  0  0  0
  2 26  2  0  0  0  0
  3 11  1  0  0  0  0
  3 12  1  0  0  0  0
  3 15  1  0  0  0  0
  4 13  1  0  0  0  0
  4 14  1  0  0  0  0
  4 16  1  0  0  0  0
  5  6  1  0  0  0  0
  5 19  1  0  0  0  0
  5 25  1  0  0  0  0
  6 26  1  0  0  0  0
  6 28  1  0  0  0  0
  7 20  1  0  0  0  0
  7 29  1  0  0  0  0
  7 55  1  0  0  0  0
  8 19  2  0  0  0  0
  8 29  1  0  0  0  0
  9 25  1  0  0  0  0
  9 27  2  0  0  0  0
 10 29  2  0  0  0  0
 10 30  1  0  0  0  0
 11 14  1  0  0  0  0
 11 38  1  0  0  0  0
 11 39  1  0  0  0  0
 12 13  1  0  0  0  0
 12 40  1  0  0  0  0
 12 41  1  0  0  0  0
 13 42  1  0  0  0  0
 13 43  1  0  0  0  0
 14 44  1  0  0  0  0
 14 45  1  0  0  0  0
 15 17  2  0  0  0  0
 15 18  1  0  0  0  0
 16 46  1  0  0  0  0
 16 47  1  0  0  0  0
 16 48  1  0  0  0  0
 17 21  1  0  0  0  0
 17 49  1  0  0  0  0
 18 22  2  0  0  0  0
 18 50  1  0  0  0  0
 19 23  1  0  0  0  0
 20 21  2  0  0  0  0
 20 22  1  0  0  0  0
 21 51  1  0  0  0  0
 22 52  1  0  0  0  0
 23 26  1  0  0  0  0
 23 30  2  0  0  0  0
 24 27  1  0  0  0  0
 24 32  1  0  0  0  0
 24 33  1  0  0  0  0
 25 31  2  0  0  0  0
 27 34  1  0  0  0  0
 28 36  1  0  0  0  0
 28 53  1  0  0  0  0
 28 54  1  0  0  0  0
 30 56  1  0  0  0  0
 31 35  1  0  0  0  0
 31 57  1  0  0  0  0
 32 58  1  0  0  0  0
 32 59  1  0  0  0  0
 32 60  1  0  0  0  0
 33 61  1  0  0  0  0
 33 62  1  0  0  0  0
 33 63  1  0  0  0  0
 34 35  2  0  0  0  0
 34 64  1  0  0  0  0
 35 65  1  0  0  0  0
 36 37  2  0  0  0  0
 36 66  1  0  0  0  0
 37 68  1  0  0  0  0
 37 69  1  0  0  0  0
M  END
> <PUBCHEM_COMPOUND_CID>
24856436

> <PUBCHEM_COMPOUND_CANONICALIZED>
1

> <PUBCHEM_CACTVS_COMPLEXITY>
795

> <PUBCHEM_CACTVS_HBOND_ACCEPTOR>
9

> <PUBCHEM_CACTVS_HBOND_DONOR>
2

> <PUBCHEM_CACTVS_ROTATABLE_BOND>
7

> <PUBCHEM_CACTVS_SUBSKEYS>
AAADcfB78AAAAAAAAAAAAAAAAAAAAWAAAAA8WLEAAAAAAFgB8AAAHgAYCAAADEzBngQ/8JfIEgCoAzd3dASChCk1AqAf2CE4bNiKburA2dGUdIhs1gPY2OeQwEAMAACAAAAAAAAAAQAAAAAAAAAAAAAAAA==

> <PUBCHEM_IUPAC_OPENEYE_NAME>
2-allyl-1-[6-(1-hydroxy-1-methyl-ethyl)-2-pyridyl]-6-[4-(4-methylpiperazin-1-yl)anilino]pyrazolo[3,4-d]pyrimidin-3-one

> <PUBCHEM_IUPAC_CAS_NAME>
1-[6-(2-hydroxypropan-2-yl)-2-pyridinyl]-6-[4-(4-methyl-1-piperazinyl)anilino]-2-prop-2-enyl-3-pyrazolo[3,4-d]pyrimidinone

> <PUBCHEM_IUPAC_NAME>
1-[6-(2-hydroxypropan-2-yl)pyridin-2-yl]-6-[4-(4-methylpiperazin-1-yl)anilino]-2-prop-2-enylpyrazolo[3,4-d]pyrimidin-3-one

> <PUBCHEM_IUPAC_SYSTEMATIC_NAME>
6-[[4-(4-methylpiperazin-1-yl)phenyl]amino]-1-[6-(2-oxidanylpropan-2-yl)pyridin-2-yl]-2-prop-2-enyl-pyrazolo[3,4-d]pyrimidin-3-one

> <PUBCHEM_IUPAC_TRADITIONAL_NAME>
2-allyl-1-[6-(1-hydroxy-1-methyl-ethyl)-2-pyridyl]-6-[4-(4-methylpiperazino)anilino]pyrazolo[3,4-d]pyrimidin-3-one

> <PUBCHEM_IUPAC_INCHI>
InChI=1S/C27H32N8O2/c1-5-13-34-25(36)21-18-28-26(29-19-9-11-20(12-10-19)33-16-14-32(4)15-17-33)31-24(21)35(34)23-8-6-7-22(30-23)27(2,3)37/h5-12,18,37H,1,13-17H2,2-4H3,(H,28,29,31)

> <PUBCHEM_IUPAC_INCHIKEY>
BKWJAKQVGHWELA-UHFFFAOYSA-N

> <PUBCHEM_XLOGP3_AA>
3.1

> <PUBCHEM_EXACT_MASS>
500.264822

> <PUBCHEM_MOLECULAR_FORMULA>
C27H32N8O2

> <PUBCHEM_MOLECULAR_WEIGHT>
500.59538

> <PUBCHEM_OPENEYE_CAN_SMILES>
CC(C)(C1=NC(=CC=C1)N2C3=NC(=NC=C3C(=O)N2CC=C)NC4=CC=C(C=C4)N5CCN(CC5)C)O

> <PUBCHEM_OPENEYE_ISO_SMILES>
CC(C)(C1=NC(=CC=C1)N2C3=NC(=NC=C3C(=O)N2CC=C)NC4=CC=C(C=C4)N5CCN(CC5)C)O

> <PUBCHEM_CACTVS_TPSA>
101

> <PUBCHEM_MONOISOTOPIC_WEIGHT>
500.264822

> <PUBCHEM_TOTAL_CHARGE>
0

> <PUBCHEM_HEAVY_ATOM_COUNT>
37

> <PUBCHEM_ATOM_DEF_STEREO_COUNT>
0

> <PUBCHEM_ATOM_UDEF_STEREO_COUNT>
0

> <PUBCHEM_BOND_DEF_STEREO_COUNT>
0

> <PUBCHEM_BOND_UDEF_STEREO_COUNT>
0

> <PUBCHEM_ISOTOPIC_ATOM_COUNT>
0

> <PUBCHEM_COMPONENT_COUNT>
1

> <PUBCHEM_CACTVS_TAUTO_COUNT>
5

> <PUBCHEM_COORDINATE_TYPE>
1
5
255

> <PUBCHEM_BONDANNOTATIONS>
10  29  8
10  30  8
15  17  8
15  18  8
17  21  8
18  22  8
19  23  8
20  21  8
20  22  8
23  26  8
23  30  8
25  31  8
27  34  8
31  35  8
34  35  8
5  19  8
5  6  8
6  26  8
8  19  8
8  29  8
9  25  8
9  27  8

$$$$
24964624
  -OEChem-11121519512D

 52 57  0     0  0  0  0  0  0999 V2000
    2.8930   -3.6622    0.0000 O   0  0  0  0  0  0  0  0  0  0  0  0
   10.7684    1.2601    0.0000 N   0  0  0  0  0  0  0  0  0  0  0  0
    6.7919   -0.9001    0.0000 N   0  0  0  0  0  0  0  0  0  0  0  0
    4.1498   -2.4070    0.0000 N   0  0  0  0  0  0  0  0  0  0  0  0
    3.2036   -1.1023    0.0000 N   0  0  0  0  0  0  0  0  0  0  0  0
    2.6200   -1.9070    0.0000 N   0  0  0  0  0  0  0  0  0  0  0  0
   10.2717    2.1281    0.0000 C   0  0  0  0  0  0  0  0  0  0  0  0
   11.1396    2.6247    0.0000 C   0  0  0  0  0  0  0  0  0  0  0  0
    9.7750    2.9960    0.0000 C   0  0  0  0  0  0  0  0  0  0  0  0
   10.6430    3.4927    0.0000 C   0  0  0  0  0  0  0  0  0  0  0  0
    9.4038    1.6314    0.0000 C   0  0  0  0  0  0  0  0  0  0  0  0
    8.5397    2.1348    0.0000 C   0  0  0  0  0  0  0  0  0  0  0  0
    9.3999    0.6314    0.0000 C   0  0  0  0  0  0  0  0  0  0  0  0
    7.6717    1.6381    0.0000 C   0  0  0  0  0  0  0  0  0  0  0  0
    8.5320    0.1348    0.0000 C   0  0  0  0  0  0  0  0  0  0  0  0
    7.6679    0.6381    0.0000 C   0  0  0  0  0  0  0  0  0  0  0  0
    6.7999    0.1415    0.0000 C   0  0  0  0  0  0  0  0  0  0  0  0
    5.8978    0.6623    0.0000 C   0  0  0  0  0  0  0  0  0  0  0  0
    5.0158   -0.9070    0.0000 C   0  0  0  0  0  0  0  0  0  0  0  0
    5.8819   -1.4070    0.0000 C   0  0  0  0  0  0  0  0  0  0  0  0
    4.9998    0.1345    0.0000 C   0  0  0  0  0  0  0  0  0  0  0  0
    5.8940    1.6623    0.0000 C   0  0  0  0  0  0  0  0  0  0  0  0
    4.1498   -1.4070    0.0000 C   0  0  0  0  0  0  0  0  0  0  0  0
    5.8819   -2.4070    0.0000 C   0  0  0  0  0  0  0  0  0  0  0  0
    5.0158   -2.9070    0.0000 C   0  0  0  0  0  0  0  0  0  0  0  0
    6.7581    2.1656    0.0000 C   0  0  0  0  0  0  0  0  0  0  0  0
    5.0260    2.1589    0.0000 C   0  0  0  0  0  0  0  0  0  0  0  0
    3.2036   -2.7117    0.0000 C   0  0  0  0  0  0  0  0  0  0  0  0
    6.7542    3.1656    0.0000 C   0  0  0  0  0  0  0  0  0  0  0  0
    5.0222    3.1589    0.0000 C   0  0  0  0  0  0  0  0  0  0  0  0
    5.8863    3.6622    0.0000 C   0  0  0  0  0  0  0  0  0  0  0  0
    9.4671    3.5342    0.0000 H   0  0  0  0  0  0  0  0  0  0  0  0
    9.2369    2.6881    0.0000 H   0  0  0  0  0  0  0  0  0  0  0  0
   11.4476    2.0866    0.0000 H   0  0  0  0  0  0  0  0  0  0  0  0
   11.6778    2.9327    0.0000 H   0  0  0  0  0  0  0  0  0  0  0  0
   11.1811    3.8006    0.0000 H   0  0  0  0  0  0  0  0  0  0  0  0
   10.3351    4.0308    0.0000 H   0  0  0  0  0  0  0  0  0  0  0  0
   11.3883    1.2578    0.0000 H   0  0  0  0  0  0  0  0  0  0  0  0
   10.4563    0.7244    0.0000 H   0  0  0  0  0  0  0  0  0  0  0  0
    8.5420    2.7548    0.0000 H   0  0  0  0  0  0  0  0  0  0  0  0
    9.9356    0.3194    0.0000 H   0  0  0  0  0  0  0  0  0  0  0  0
    7.1360    1.9502    0.0000 H   0  0  0  0  0  0  0  0  0  0  0  0
    8.5296   -0.4852    0.0000 H   0  0  0  0  0  0  0  0  0  0  0  0
    4.4593    0.4383    0.0000 H   0  0  0  0  0  0  0  0  0  0  0  0
    6.4188   -2.7170    0.0000 H   0  0  0  0  0  0  0  0  0  0  0  0
    5.0158   -3.5270    0.0000 H   0  0  0  0  0  0  0  0  0  0  0  0
    7.2962    1.8577    0.0000 H   0  0  0  0  0  0  0  0  0  0  0  0
    4.4903    1.8468    0.0000 H   0  0  0  0  0  0  0  0  0  0  0  0
    2.0000   -1.9070    0.0000 H   0  0  0  0  0  0  0  0  0  0  0  0
    7.2900    3.4776    0.0000 H   0  0  0  0  0  0  0  0  0  0  0  0
    4.4840    3.4668    0.0000 H   0  0  0  0  0  0  0  0  0  0  0  0
    5.8839    4.2822    0.0000 H   0  0  0  0  0  0  0  0  0  0  0  0
  1 28  2  0  0  0  0
  2  7  1  0  0  0  0
  2 38  1  0  0  0  0
  2 39  1  0  0  0  0
  3 17  1  0  0  0  0
  3 20  2  0  0  0  0
  4 23  1  0  0  0  0
  4 25  1  0  0  0  0
  4 28  1  0  0  0  0
  5  6  1  0  0  0  0
  5 23  2  0  0  0  0
  6 28  1  0  0  0  0
  6 49  1  0  0  0  0
  7  8  1  0  0  0  0
  7  9  1  0  0  0  0
  7 11  1  0  0  0  0
  8 10  1  0  0  0  0
  8 34  1  0  0  0  0
  8 35  1  0  0  0  0
  9 10  1  0  0  0  0
  9 32  1  0  0  0  0
  9 33  1  0  0  0  0
 10 36  1  0  0  0  0
 10 37  1  0  0  0  0
 11 12  2  0  0  0  0
 11 13  1  0  0  0  0
 12 14  1  0  0  0  0
 12 40  1  0  0  0  0
 13 15  2  0  0  0  0
 13 41  1  0  0  0  0
 14 16  2  0  0  0  0
 14 42  1  0  0  0  0
 15 16  1  0  0  0  0
 15 43  1  0  0  0  0
 16 17  1  0  0  0  0
 17 18  2  0  0  0  0
 18 21  1  0  0  0  0
 18 22  1  0  0  0  0
 19 20  1  0  0  0  0
 19 21  2  0  0  0  0
 19 23  1  0  0  0  0
 20 24  1  0  0  0  0
 21 44  1  0  0  0  0
 22 26  2  0  0  0  0
 22 27  1  0  0  0  0
 24 25  2  0  0  0  0
 24 45  1  0  0  0  0
 25 46  1  0  0  0  0
 26 29  1  0  0  0  0
 26 47  1  0  0  0  0
 27 30  2  0  0  0  0
 27 48  1  0  0  0  0
 29 31  2  0  0  0  0
 29 50  1  0  0  0  0
 30 31  1  0  0  0  0
 30 51  1  0  0  0  0
 31 52  1  0  0  0  0
M  END
> <PUBCHEM_COMPOUND_CID>
24964624

> <PUBCHEM_COMPOUND_CANONICALIZED>
1

> <PUBCHEM_CACTVS_COMPLEXITY>
760

> <PUBCHEM_CACTVS_HBOND_ACCEPTOR>
4

> <PUBCHEM_CACTVS_HBOND_DONOR>
2

> <PUBCHEM_CACTVS_ROTATABLE_BOND>
3

> <PUBCHEM_CACTVS_SUBSKEYS>
AAADceB7oAAAAAAAAAAAAAAAAABgAQAAAAA8YIEAAAAAAECB0AAAHgAYAAAADIjBHgQxgJNqEACoAyZmdACSgCAhAiAPmCA4RJiIIOLA0ZGEIAhgngLIyAcQgMAOwAAAAAAAAACAAAAAAAAAAAAAAAAAAA==

> <PUBCHEM_IUPAC_OPENEYE_NAME>
8-[4-(1-aminocyclobutyl)phenyl]-9-phenyl-2H-[1,2,4]triazolo[3,4-f][1,6]naphthyridin-3-one

> <PUBCHEM_IUPAC_CAS_NAME>
8-[4-(1-aminocyclobutyl)phenyl]-9-phenyl-2H-[1,2,4]triazolo[3,4-f][1,6]naphthyridin-3-one

> <PUBCHEM_IUPAC_NAME>
8-[4-(1-aminocyclobutyl)phenyl]-9-phenyl-2H-[1,2,4]triazolo[3,4-f][1,6]naphthyridin-3-one

> <PUBCHEM_IUPAC_SYSTEMATIC_NAME>
8-[4-(1-azanylcyclobutyl)phenyl]-9-phenyl-2H-[1,2,4]triazolo[3,4-f][1,6]naphthyridin-3-one

> <PUBCHEM_IUPAC_TRADITIONAL_NAME>
8-[4-(1-aminocyclobutyl)phenyl]-9-phenyl-2H-[1,2,4]triazolo[3,4-f][1,6]naphthyridin-3-one

> <PUBCHEM_IUPAC_INCHI>
InChI=1S/C25H21N5O/c26-25(12-4-13-25)18-9-7-17(8-10-18)22-19(16-5-2-1-3-6-16)15-20-21(27-22)11-14-30-23(20)28-29-24(30)31/h1-3,5-11,14-15H,4,12-13,26H2,(H,29,31)

> <PUBCHEM_IUPAC_INCHIKEY>
ULDXWLCXEDXJGE-UHFFFAOYSA-N

> <PUBCHEM_XLOGP3_AA>
3

> <PUBCHEM_EXACT_MASS>
407.17461

> <PUBCHEM_MOLECULAR_FORMULA>
C25H21N5O

> <PUBCHEM_MOLECULAR_WEIGHT>
407.46714

> <PUBCHEM_OPENEYE_CAN_SMILES>
C1CC(C1)(C2=CC=C(C=C2)C3=C(C=C4C(=N3)C=CN5C4=NNC5=O)C6=CC=CC=C6)N

> <PUBCHEM_OPENEYE_ISO_SMILES>
C1CC(C1)(C2=CC=C(C=C2)C3=C(C=C4C(=N3)C=CN5C4=NNC5=O)C6=CC=CC=C6)N

> <PUBCHEM_CACTVS_TPSA>
83.6

> <PUBCHEM_MONOISOTOPIC_WEIGHT>
407.17461

> <PUBCHEM_TOTAL_CHARGE>
0

> <PUBCHEM_HEAVY_ATOM_COUNT>
31

> <PUBCHEM_ATOM_DEF_STEREO_COUNT>
0

> <PUBCHEM_ATOM_UDEF_STEREO_COUNT>
0

> <PUBCHEM_BOND_DEF_STEREO_COUNT>
0

> <PUBCHEM_BOND_UDEF_STEREO_COUNT>
0

> <PUBCHEM_ISOTOPIC_ATOM_COUNT>
0

> <PUBCHEM_COMPONENT_COUNT>
1

> <PUBCHEM_CACTVS_TAUTO_COUNT>
2

> <PUBCHEM_COORDINATE_TYPE>
1
5
255

> <PUBCHEM_BONDANNOTATIONS>
11  12  8
11  13  8
12  14  8
13  15  8
14  16  8
15  16  8
17  18  8
18  21  8
19  20  8
19  21  8
19  23  8
20  24  8
22  26  8
22  27  8
24  25  8
26  29  8
27  30  8
29  31  8
3  17  8
3  20  8
30  31  8
4  23  8
4  25  8
4  28  8
5  23  8
5  6  8
6  28  8

$$$$
24978538
  -OEChem-11121519512D

120126  0     1  0  0  0  0  0999 V2000
   21.9186   -2.8170    0.0000 Cl  0  0  0  0  0  0  0  0  0  0  0  0
   10.6603    1.6830    0.0000 S   0  0  0  0  0  0  0  0  0  0  0  0
    8.9282    4.6830    0.0000 S   0  0  0  0  0  0  0  0  0  0  0  0
    5.4641    1.6830    0.0000 S   0  0  0  0  0  0  0  0  0  0  0  0
    8.9282    6.6830    0.0000 F   0  0  0  0  0  0  0  0  0  0  0  0
    9.9282    5.6830    0.0000 F   0  0  0  0  0  0  0  0  0  0  0  0
    7.9282    5.6830    0.0000 F   0  0  0  0  0  0  0  0  0  0  0  0
    2.0000    4.6830    0.0000 O   0  0  0  0  0  0  0  0  0  0  0  0
   10.6603   -0.3170    0.0000 O   0  0  0  0  0  0  0  0  0  0  0  0
   10.1603    0.8170    0.0000 O   0  0  0  0  0  0  0  0  0  0  0  0
   11.1603    2.5490    0.0000 O   0  0  0  0  0  0  0  0  0  0  0  0
    9.9282    4.6830    0.0000 O   0  0  0  0  0  0  0  0  0  0  0  0
    7.9282    4.6830    0.0000 O   0  0  0  0  0  0  0  0  0  0  0  0
   16.7224   -2.8170    0.0000 N   0  0  0  0  0  0  0  0  0  0  0  0
   14.9904   -1.8170    0.0000 N   0  0  0  0  0  0  0  0  0  0  0  0
    3.7320    3.6830    0.0000 N   0  0  0  0  0  0  0  0  0  0  0  0
    7.1962    3.6830    0.0000 N   0  0  0  0  0  0  0  0  0  0  0  0
   11.5263    1.1830    0.0000 N   0  0  0  0  0  0  0  0  0  0  0  0
   16.7224   -5.8170    0.0000 C   0  0  0  0  0  0  0  0  0  0  0  0
   16.7224   -4.8170    0.0000 C   0  0  0  0  0  0  0  0  0  0  0  0
   17.5885   -6.3170    0.0000 C   0  0  0  0  0  0  0  0  0  0  0  0
   17.5885   -4.3170    0.0000 C   0  0  0  0  0  0  0  0  0  0  0  0
   18.4545   -5.8170    0.0000 C   0  0  0  0  0  0  0  0  0  0  0  0
   18.4545   -4.8170    0.0000 C   0  0  0  0  0  0  0  0  0  0  0  0
   17.5885   -3.3170    0.0000 C   0  0  0  0  0  0  0  0  0  0  0  0
   16.2224   -6.6830    0.0000 C   0  0  0  0  0  0  0  0  0  0  0  0
   15.7224   -5.8170    0.0000 C   0  0  0  0  0  0  0  0  0  0  0  0
   16.7224   -1.8170    0.0000 C   0  0  0  0  0  0  0  0  0  0  0  0
   15.8564   -3.3170    0.0000 C   0  0  0  0  0  0  0  0  0  0  0  0
   19.3205   -4.3170    0.0000 C   0  0  0  0  0  0  0  0  0  0  0  0
   14.9904   -2.8170    0.0000 C   0  0  0  0  0  0  0  0  0  0  0  0
   15.8564   -1.3170    0.0000 C   0  0  0  0  0  0  0  0  0  0  0  0
   19.3205   -3.3170    0.0000 C   0  0  0  0  0  0  0  0  0  0  0  0
   20.1865   -4.8170    0.0000 C   0  0  0  0  0  0  0  0  0  0  0  0
   14.1244   -1.3170    0.0000 C   0  0  0  0  0  0  0  0  0  0  0  0
   20.1865   -2.8170    0.0000 C   0  0  0  0  0  0  0  0  0  0  0  0
   21.0526   -4.3170    0.0000 C   0  0  0  0  0  0  0  0  0  0  0  0
   14.1244   -0.3170    0.0000 C   0  0  0  0  0  0  0  0  0  0  0  0
   13.2583   -1.8170    0.0000 C   0  0  0  0  0  0  0  0  0  0  0  0
   21.0526   -3.3170    0.0000 C   0  0  0  0  0  0  0  0  0  0  0  0
   13.2583    0.1830    0.0000 C   0  0  0  0  0  0  0  0  0  0  0  0
   12.3923   -1.3170    0.0000 C   0  0  0  0  0  0  0  0  0  0  0  0
   12.3923   -0.3170    0.0000 C   0  0  0  0  0  0  0  0  0  0  0  0
    4.5981    3.1830    0.0000 C   0  0  0  0  0  0  0  0  0  0  0  0
    5.4641    3.6830    0.0000 C   0  0  0  0  0  0  0  0  0  0  0  0
    6.3301    3.1830    0.0000 C   0  0  2  0  0  0  0  0  0  0  0  0
    3.7320    4.6830    0.0000 C   0  0  0  0  0  0  0  0  0  0  0  0
    2.8660    3.1830    0.0000 C   0  0  0  0  0  0  0  0  0  0  0  0
    2.0000    3.6830    0.0000 C   0  0  0  0  0  0  0  0  0  0  0  0
    2.8660    5.1830    0.0000 C   0  0  0  0  0  0  0  0  0  0  0  0
    6.3301    2.1830    0.0000 C   0  0  0  0  0  0  0  0  0  0  0  0
   11.5263    0.1830    0.0000 C   0  0  0  0  0  0  0  0  0  0  0  0
    8.0622    3.1830    0.0000 C   0  0  0  0  0  0  0  0  0  0  0  0
    8.9282    3.6830    0.0000 C   0  0  0  0  0  0  0  0  0  0  0  0
    9.7942    2.1830    0.0000 C   0  0  0  0  0  0  0  0  0  0  0  0
    8.0622    2.1830    0.0000 C   0  0  0  0  0  0  0  0  0  0  0  0
    9.7942    3.1830    0.0000 C   0  0  0  0  0  0  0  0  0  0  0  0
    8.9282    1.6830    0.0000 C   0  0  0  0  0  0  0  0  0  0  0  0
    5.4641    0.6830    0.0000 C   0  0  0  0  0  0  0  0  0  0  0  0
    8.9282    5.6830    0.0000 C   0  0  0  0  0  0  0  0  0  0  0  0
    4.5981    0.1830    0.0000 C   0  0  0  0  0  0  0  0  0  0  0  0
    6.3301    0.1830    0.0000 C   0  0  0  0  0  0  0  0  0  0  0  0
    4.5981   -0.8170    0.0000 C   0  0  0  0  0  0  0  0  0  0  0  0
    6.3301   -0.8170    0.0000 C   0  0  0  0  0  0  0  0  0  0  0  0
    5.4641   -1.3170    0.0000 C   0  0  0  0  0  0  0  0  0  0  0  0
   16.5104   -4.2344    0.0000 H   0  0  0  0  0  0  0  0  0  0  0  0
   16.1119   -4.9246    0.0000 H   0  0  0  0  0  0  0  0  0  0  0  0
   17.1899   -6.7919    0.0000 H   0  0  0  0  0  0  0  0  0  0  0  0
   17.9870   -6.7919    0.0000 H   0  0  0  0  0  0  0  0  0  0  0  0
   18.6665   -6.3996    0.0000 H   0  0  0  0  0  0  0  0  0  0  0  0
   19.0651   -5.7093    0.0000 H   0  0  0  0  0  0  0  0  0  0  0  0
   18.1990   -3.4246    0.0000 H   0  0  0  0  0  0  0  0  0  0  0  0
   17.8005   -2.7344    0.0000 H   0  0  0  0  0  0  0  0  0  0  0  0
   15.6855   -6.3730    0.0000 H   0  0  0  0  0  0  0  0  0  0  0  0
   15.9124   -7.2200    0.0000 H   0  0  0  0  0  0  0  0  0  0  0  0
   16.7594   -6.9930    0.0000 H   0  0  0  0  0  0  0  0  0  0  0  0
   15.7224   -5.1970    0.0000 H   0  0  0  0  0  0  0  0  0  0  0  0
   15.1024   -5.8170    0.0000 H   0  0  0  0  0  0  0  0  0  0  0  0
   15.7224   -6.4370    0.0000 H   0  0  0  0  0  0  0  0  0  0  0  0
   15.4579   -3.7919    0.0000 H   0  0  0  0  0  0  0  0  0  0  0  0
   16.2549   -3.7919    0.0000 H   0  0  0  0  0  0  0  0  0  0  0  0
   17.3330   -1.9246    0.0000 H   0  0  0  0  0  0  0  0  0  0  0  0
   16.9345   -1.2344    0.0000 H   0  0  0  0  0  0  0  0  0  0  0  0
   16.2549   -0.8420    0.0000 H   0  0  0  0  0  0  0  0  0  0  0  0
   15.4579   -0.8420    0.0000 H   0  0  0  0  0  0  0  0  0  0  0  0
   14.3798   -2.7093    0.0000 H   0  0  0  0  0  0  0  0  0  0  0  0
   14.7783   -3.3996    0.0000 H   0  0  0  0  0  0  0  0  0  0  0  0
   18.7836   -3.0070    0.0000 H   0  0  0  0  0  0  0  0  0  0  0  0
   20.1865   -5.4370    0.0000 H   0  0  0  0  0  0  0  0  0  0  0  0
   20.1865   -2.1970    0.0000 H   0  0  0  0  0  0  0  0  0  0  0  0
   21.5895   -4.6270    0.0000 H   0  0  0  0  0  0  0  0  0  0  0  0
   14.6613   -0.0070    0.0000 H   0  0  0  0  0  0  0  0  0  0  0  0
   13.2583   -2.4370    0.0000 H   0  0  0  0  0  0  0  0  0  0  0  0
   13.2583    0.8030    0.0000 H   0  0  0  0  0  0  0  0  0  0  0  0
   11.8554   -1.6270    0.0000 H   0  0  0  0  0  0  0  0  0  0  0  0
    4.1996    2.7081    0.0000 H   0  0  0  0  0  0  0  0  0  0  0  0
    4.9966    2.7081    0.0000 H   0  0  0  0  0  0  0  0  0  0  0  0
    5.8626    4.1580    0.0000 H   0  0  0  0  0  0  0  0  0  0  0  0
    5.0656    4.1580    0.0000 H   0  0  0  0  0  0  0  0  0  0  0  0
    6.8671    2.8730    0.0000 H   0  0  0  0  0  0  0  0  0  0  0  0
    2.4675    2.7081    0.0000 H   0  0  0  0  0  0  0  0  0  0  0  0
    3.2646    2.7081    0.0000 H   0  0  0  0  0  0  0  0  0  0  0  0
    4.3426    4.5754    0.0000 H   0  0  0  0  0  0  0  0  0  0  0  0
    3.9441    5.2656    0.0000 H   0  0  0  0  0  0  0  0  0  0  0  0
    3.2646    5.6580    0.0000 H   0  0  0  0  0  0  0  0  0  0  0  0
    2.4675    5.6580    0.0000 H   0  0  0  0  0  0  0  0  0  0  0  0
    1.3894    3.7907    0.0000 H   0  0  0  0  0  0  0  0  0  0  0  0
    1.7880    3.1004    0.0000 H   0  0  0  0  0  0  0  0  0  0  0  0
    6.5422    1.6004    0.0000 H   0  0  0  0  0  0  0  0  0  0  0  0
    6.9407    2.2907    0.0000 H   0  0  0  0  0  0  0  0  0  0  0  0
    7.1962    4.3030    0.0000 H   0  0  0  0  0  0  0  0  0  0  0  0
   12.0632    1.4930    0.0000 H   0  0  0  0  0  0  0  0  0  0  0  0
    7.5252    1.8730    0.0000 H   0  0  0  0  0  0  0  0  0  0  0  0
   10.3312    3.4930    0.0000 H   0  0  0  0  0  0  0  0  0  0  0  0
    8.9282    1.0630    0.0000 H   0  0  0  0  0  0  0  0  0  0  0  0
    4.0611    0.4930    0.0000 H   0  0  0  0  0  0  0  0  0  0  0  0
    6.8671    0.4930    0.0000 H   0  0  0  0  0  0  0  0  0  0  0  0
    4.0611   -1.1270    0.0000 H   0  0  0  0  0  0  0  0  0  0  0  0
    6.8671   -1.1270    0.0000 H   0  0  0  0  0  0  0  0  0  0  0  0
    5.4641   -1.9370    0.0000 H   0  0  0  0  0  0  0  0  0  0  0  0
  1 40  1  0  0  0  0
  2 10  2  0  0  0  0
  2 11  2  0  0  0  0
  2 18  1  0  0  0  0
  2 55  1  0  0  0  0
  3 12  2  0  0  0  0
  3 13  2  0  0  0  0
  3 54  1  0  0  0  0
  3 60  1  0  0  0  0
  4 51  1  0  0  0  0
  4 59  1  0  0  0  0
  5 60  1  0  0  0  0
  6 60  1  0  0  0  0
  7 60  1  0  0  0  0
  8 49  1  0  0  0  0
  8 50  1  0  0  0  0
  9 52  2  0  0  0  0
 14 25  1  0  0  0  0
 14 28  1  0  0  0  0
 14 29  1  0  0  0  0
 15 31  1  0  0  0  0
 15 32  1  0  0  0  0
 15 35  1  0  0  0  0
 16 44  1  0  0  0  0
 16 47  1  0  0  0  0
 16 48  1  0  0  0  0
 46 17  1  1  0  0  0
 17 53  1  0  0  0  0
 17111  1  0  0  0  0
 18 52  1  0  0  0  0
 18112  1  0  0  0  0
 19 20  1  0  0  0  0
 19 21  1  0  0  0  0
 19 26  1  0  0  0  0
 19 27  1  0  0  0  0
 20 22  1  0  0  0  0
 20 66  1  0  0  0  0
 20 67  1  0  0  0  0
 21 23  1  0  0  0  0
 21 68  1  0  0  0  0
 21 69  1  0  0  0  0
 22 24  2  0  0  0  0
 22 25  1  0  0  0  0
 23 24  1  0  0  0  0
 23 70  1  0  0  0  0
 23 71  1  0  0  0  0
 24 30  1  0  0  0  0
 25 72  1  0  0  0  0
 25 73  1  0  0  0  0
 26 74  1  0  0  0  0
 26 75  1  0  0  0  0
 26 76  1  0  0  0  0
 27 77  1  0  0  0  0
 27 78  1  0  0  0  0
 27 79  1  0  0  0  0
 28 32  1  0  0  0  0
 28 82  1  0  0  0  0
 28 83  1  0  0  0  0
 29 31  1  0  0  0  0
 29 80  1  0  0  0  0
 29 81  1  0  0  0  0
 30 33  2  0  0  0  0
 30 34  1  0  0  0  0
 31 86  1  0  0  0  0
 31 87  1  0  0  0  0
 32 84  1  0  0  0  0
 32 85  1  0  0  0  0
 33 36  1  0  0  0  0
 33 88  1  0  0  0  0
 34 37  2  0  0  0  0
 34 89  1  0  0  0  0
 35 38  2  0  0  0  0
 35 39  1  0  0  0  0
 36 40  2  0  0  0  0
 36 90  1  0  0  0  0
 37 40  1  0  0  0  0
 37 91  1  0  0  0  0
 38 41  1  0  0  0  0
 38 92  1  0  0  0  0
 39 42  2  0  0  0  0
 39 93  1  0  0  0  0
 41 43  2  0  0  0  0
 41 94  1  0  0  0  0
 42 43  1  0  0  0  0
 42 95  1  0  0  0  0
 43 52  1  0  0  0  0
 44 45  1  0  0  0  0
 44 96  1  0  0  0  0
 44 97  1  0  0  0  0
 45 46  1  0  0  0  0
 45 98  1  0  0  0  0
 45 99  1  0  0  0  0
 46 51  1  0  0  0  0
 46100  1  0  0  0  0
 47 50  1  0  0  0  0
 47103  1  0  0  0  0
 47104  1  0  0  0  0
 48 49  1  0  0  0  0
 48101  1  0  0  0  0
 48102  1  0  0  0  0
 49107  1  0  0  0  0
 49108  1  0  0  0  0
 50105  1  0  0  0  0
 50106  1  0  0  0  0
 51109  1  0  0  0  0
 51110  1  0  0  0  0
 53 54  2  0  0  0  0
 53 56  1  0  0  0  0
 54 57  1  0  0  0  0
 55 57  2  0  0  0  0
 55 58  1  0  0  0  0
 56 58  2  0  0  0  0
 56113  1  0  0  0  0
 57114  1  0  0  0  0
 58115  1  0  0  0  0
 59 61  2  0  0  0  0
 59 62  1  0  0  0  0
 61 63  1  0  0  0  0
 61116  1  0  0  0  0
 62 64  2  0  0  0  0
 62117  1  0  0  0  0
 63 65  2  0  0  0  0
 63118  1  0  0  0  0
 64 65  1  0  0  0  0
 64119  1  0  0  0  0
 65120  1  0  0  0  0
M  END
> <PUBCHEM_COMPOUND_CID>
24978538

> <PUBCHEM_COMPOUND_CANONICALIZED>
1

> <PUBCHEM_CACTVS_COMPLEXITY>
1800

> <PUBCHEM_CACTVS_HBOND_ACCEPTOR>
14

> <PUBCHEM_CACTVS_HBOND_DONOR>
2

> <PUBCHEM_CACTVS_ROTATABLE_BOND>
16

> <PUBCHEM_CACTVS_SUBSKEYS>
AAADcfB/uYBkAAAAAAAAAAAAAAAAAAAAAAA8eMGCAAAAAAABVAAAHwYQQAAADirl2DaywYPABAqIAiVSUHDCABAlDxAIiJ0IZsgKYDLh15GXIQhgkAD4yYcYicCfDAQAAEAAAQAYCAAAgAACAAAAAAAAAA==

> <PUBCHEM_IUPAC_OPENEYE_NAME>
4-[4-[[2-(4-chlorophenyl)-5,5-dimethyl-cyclohexen-1-yl]methyl]piperazin-1-yl]-N-[4-[[(1R)-3-morpholino-1-(phenylsulfanylmethyl)propyl]amino]-3-(trifluoromethylsulfonyl)phenyl]sulfonyl-benzamide

> <PUBCHEM_IUPAC_CAS_NAME>
4-[4-[[2-(4-chlorophenyl)-5,5-dimethyl-1-cyclohexenyl]methyl]-1-piperazinyl]-N-[4-[[(2R)-4-(4-morpholinyl)-1-(phenylthio)butan-2-yl]amino]-3-(trifluoromethylsulfonyl)phenyl]sulfonylbenzamide

> <PUBCHEM_IUPAC_NAME>
4-[4-[[2-(4-chlorophenyl)-5,5-dimethylcyclohexen-1-yl]methyl]piperazin-1-yl]-N-[4-[[(2R)-4-morpholin-4-yl-1-phenylsulfanylbutan-2-yl]amino]-3-(trifluoromethylsulfonyl)phenyl]sulfonylbenzamide

> <PUBCHEM_IUPAC_SYSTEMATIC_NAME>
4-[4-[[2-(4-chlorophenyl)-5,5-dimethyl-cyclohexen-1-yl]methyl]piperazin-1-yl]-N-[4-[[(2R)-4-morpholin-4-yl-1-phenylsulfanyl-butan-2-yl]amino]-3-(trifluoromethylsulfonyl)phenyl]sulfonyl-benzamide

> <PUBCHEM_IUPAC_TRADITIONAL_NAME>
4-[4-[[2-(4-chlorophenyl)-5,5-dimethyl-cyclohexen-1-yl]methyl]piperazino]-N-[4-[[(1R)-3-morpholino-1-[(phenylthio)methyl]propyl]amino]-3-triflyl-phenyl]sulfonyl-benzamide

> <PUBCHEM_IUPAC_INCHI>
InChI=1S/C47H55ClF3N5O6S3/c1-46(2)20-18-42(34-8-12-37(48)13-9-34)36(31-46)32-55-22-24-56(25-23-55)39-14-10-35(11-15-39)45(57)53-65(60,61)41-16-17-43(44(30-41)64(58,59)47(49,50)51)52-38(19-21-54-26-28-62-29-27-54)33-63-40-6-4-3-5-7-40/h3-17,30,38,52H,18-29,31-33H2,1-2H3,(H,53,57)/t38-/m1/s1

> <PUBCHEM_IUPAC_INCHIKEY>
JLYAXFNOILIKPP-KXQOOQHDSA-N

> <PUBCHEM_XLOGP3_AA>
9.6

> <PUBCHEM_EXACT_MASS>
973.29551

> <PUBCHEM_MOLECULAR_FORMULA>
C47H55ClF3N5O6S3

> <PUBCHEM_MOLECULAR_WEIGHT>
974.61271

> <PUBCHEM_OPENEYE_CAN_SMILES>
CC1(CCC(=C(C1)CN2CCN(CC2)C3=CC=C(C=C3)C(=O)NS(=O)(=O)C4=CC(=C(C=C4)NC(CCN5CCOCC5)CSC6=CC=CC=C6)S(=O)(=O)C(F)(F)F)C7=CC=C(C=C7)Cl)C

> <PUBCHEM_OPENEYE_ISO_SMILES>
CC1(CCC(=C(C1)CN2CCN(CC2)C3=CC=C(C=C3)C(=O)NS(=O)(=O)C4=CC(=C(C=C4)N[C@H](CCN5CCOCC5)CSC6=CC=CC=C6)S(=O)(=O)C(F)(F)F)C7=CC=C(C=C7)Cl)C

> <PUBCHEM_CACTVS_TPSA>
170

> <PUBCHEM_MONOISOTOPIC_WEIGHT>
973.29551

> <PUBCHEM_TOTAL_CHARGE>
0

> <PUBCHEM_HEAVY_ATOM_COUNT>
65

> <PUBCHEM_ATOM_DEF_STEREO_COUNT>
1

> <PUBCHEM_ATOM_UDEF_STEREO_COUNT>
0

> <PUBCHEM_BOND_DEF_STEREO_COUNT>
0

> <PUBCHEM_BOND_UDEF_STEREO_COUNT>
0

> <PUBCHEM_ISOTOPIC_ATOM_COUNT>
0

> <PUBCHEM_COMPONENT_COUNT>
1

> <PUBCHEM_CACTVS_TAUTO_COUNT>
2

> <PUBCHEM_COORDINATE_TYPE>
1
5
255

> <PUBCHEM_BONDANNOTATIONS>
46  17  5
30  33  8
30  34  8
33  36  8
34  37  8
35  38  8
35  39  8
36  40  8
37  40  8
38  41  8
39  42  8
41  43  8
42  43  8
53  54  8
53  56  8
54  57  8
55  57  8
55  58  8
56  58  8
59  61  8
59  62  8
61  63  8
62  64  8
63  65  8
64  65  8

$$$$
25227436
  -OEChem-11121519512D

 55 58  0     1  0  0  0  0  0999 V2000
    2.0000    1.9956    0.0000 Cl  0  0  0  0  0  0  0  0  0  0  0  0
    7.6736    2.1143    0.0000 O   0  0  0  0  0  0  0  0  0  0  0  0
    6.5000    4.5936    0.0000 O   0  0  0  0  0  0  0  0  0  0  0  0
    8.0000   -1.7365    0.0000 N   0  0  0  0  0  0  0  0  0  0  0  0
    8.7660    0.9063    0.0000 N   0  0  0  0  0  0  0  0  0  0  0  0
    6.5000    1.1295    0.0000 N   0  0  0  0  0  0  0  0  0  0  0  0
    7.1340   -3.2365    0.0000 N   0  0  0  0  0  0  0  0  0  0  0  0
    9.8122   -4.5412    0.0000 N   0  0  0  0  0  0  0  0  0  0  0  0
    8.0000   -4.7365    0.0000 N   0  0  0  0  0  0  0  0  0  0  0  0
    8.0000    0.2635    0.0000 C   0  0  0  0  0  0  0  0  0  0  0  0
    8.8660   -0.2365    0.0000 C   0  0  0  0  0  0  0  0  0  0  0  0
    7.1340   -0.2365    0.0000 C   0  0  0  0  0  0  0  0  0  0  0  0
    7.1340   -1.2365    0.0000 C   0  0  0  0  0  0  0  0  0  0  0  0
    8.8660   -1.2365    0.0000 C   0  0  0  0  0  0  0  0  0  0  0  0
    7.5000    1.1295    0.0000 C   0  0  0  0  0  0  0  0  0  0  0  0
    8.0000   -2.7365    0.0000 C   0  0  0  0  0  0  0  0  0  0  0  0
    6.0000    1.9956    0.0000 C   0  0  1  0  0  0  0  0  0  0  0  0
    8.8660   -3.2365    0.0000 C   0  0  0  0  0  0  0  0  0  0  0  0
    6.5000    2.8616    0.0000 C   0  0  0  0  0  0  0  0  0  0  0  0
    5.0000    1.9956    0.0000 C   0  0  0  0  0  0  0  0  0  0  0  0
    8.8660   -4.2365    0.0000 C   0  0  0  0  0  0  0  0  0  0  0  0
    9.8122   -2.9318    0.0000 C   0  0  0  0  0  0  0  0  0  0  0  0
    6.0000    3.7276    0.0000 C   0  0  0  0  0  0  0  0  0  0  0  0
    4.5000    2.8616    0.0000 C   0  0  0  0  0  0  0  0  0  0  0  0
    4.5000    1.1295    0.0000 C   0  0  0  0  0  0  0  0  0  0  0  0
    7.1340   -4.2365    0.0000 C   0  0  0  0  0  0  0  0  0  0  0  0
   10.3959   -3.7365    0.0000 C   0  0  0  0  0  0  0  0  0  0  0  0
    3.5000    2.8616    0.0000 C   0  0  0  0  0  0  0  0  0  0  0  0
    3.5000    1.1295    0.0000 C   0  0  0  0  0  0  0  0  0  0  0  0
    3.0000    1.9956    0.0000 C   0  0  0  0  0  0  0  0  0  0  0  0
    9.4766   -0.3442    0.0000 H   0  0  0  0  0  0  0  0  0  0  0  0
    9.0781    0.3461    0.0000 H   0  0  0  0  0  0  0  0  0  0  0  0
    6.9219    0.3461    0.0000 H   0  0  0  0  0  0  0  0  0  0  0  0
    6.5234   -0.3442    0.0000 H   0  0  0  0  0  0  0  0  0  0  0  0
    6.5234   -1.1288    0.0000 H   0  0  0  0  0  0  0  0  0  0  0  0
    6.9219   -1.8191    0.0000 H   0  0  0  0  0  0  0  0  0  0  0  0
    9.0781   -1.8191    0.0000 H   0  0  0  0  0  0  0  0  0  0  0  0
    9.4766   -1.1288    0.0000 H   0  0  0  0  0  0  0  0  0  0  0  0
    9.3486    0.6942    0.0000 H   0  0  0  0  0  0  0  0  0  0  0  0
    8.6584    1.5169    0.0000 H   0  0  0  0  0  0  0  0  0  0  0  0
    6.1900    0.5926    0.0000 H   0  0  0  0  0  0  0  0  0  0  0  0
    6.6200    1.9956    0.0000 H   0  0  0  0  0  0  0  0  0  0  0  0
    6.9750    2.4630    0.0000 H   0  0  0  0  0  0  0  0  0  0  0  0
    6.9750    3.2601    0.0000 H   0  0  0  0  0  0  0  0  0  0  0  0
    5.5250    4.1261    0.0000 H   0  0  0  0  0  0  0  0  0  0  0  0
    5.5250    3.3291    0.0000 H   0  0  0  0  0  0  0  0  0  0  0  0
   10.0049   -2.3424    0.0000 H   0  0  0  0  0  0  0  0  0  0  0  0
    4.8100    3.3985    0.0000 H   0  0  0  0  0  0  0  0  0  0  0  0
    4.8100    0.5926    0.0000 H   0  0  0  0  0  0  0  0  0  0  0  0
   10.0049   -5.1306    0.0000 H   0  0  0  0  0  0  0  0  0  0  0  0
    6.5970   -4.5465    0.0000 H   0  0  0  0  0  0  0  0  0  0  0  0
   11.0159   -3.7365    0.0000 H   0  0  0  0  0  0  0  0  0  0  0  0
    3.1900    3.3985    0.0000 H   0  0  0  0  0  0  0  0  0  0  0  0
    3.1900    0.5926    0.0000 H   0  0  0  0  0  0  0  0  0  0  0  0
    6.1900    5.1306    0.0000 H   0  0  0  0  0  0  0  0  0  0  0  0
  1 30  1  0  0  0  0
  2 15  2  0  0  0  0
  3 23  1  0  0  0  0
  3 55  1  0  0  0  0
  4 13  1  0  0  0  0
  4 14  1  0  0  0  0
  4 16  1  0  0  0  0
  5 10  1  0  0  0  0
  5 39  1  0  0  0  0
  5 40  1  0  0  0  0
  6 15  1  0  0  0  0
 17  6  1  6  0  0  0
  6 41  1  0  0  0  0
  7 16  2  0  0  0  0
  7 26  1  0  0  0  0
  8 21  1  0  0  0  0
  8 27  1  0  0  0  0
  8 50  1  0  0  0  0
  9 21  1  0  0  0  0
  9 26  2  0  0  0  0
 10 11  1  0  0  0  0
 10 12  1  0  0  0  0
 10 15  1  0  0  0  0
 11 14  1  0  0  0  0
 11 31  1  0  0  0  0
 11 32  1  0  0  0  0
 12 13  1  0  0  0  0
 12 33  1  0  0  0  0
 12 34  1  0  0  0  0
 13 35  1  0  0  0  0
 13 36  1  0  0  0  0
 14 37  1  0  0  0  0
 14 38  1  0  0  0  0
 16 18  1  0  0  0  0
 17 19  1  0  0  0  0
 17 20  1  0  0  0  0
 17 42  1  0  0  0  0
 18 21  2  0  0  0  0
 18 22  1  0  0  0  0
 19 23  1  0  0  0  0
 19 43  1  0  0  0  0
 19 44  1  0  0  0  0
 20 24  2  0  0  0  0
 20 25  1  0  0  0  0
 22 27  2  0  0  0  0
 22 47  1  0  0  0  0
 23 45  1  0  0  0  0
 23 46  1  0  0  0  0
 24 28  1  0  0  0  0
 24 48  1  0  0  0  0
 25 29  2  0  0  0  0
 25 49  1  0  0  0  0
 26 51  1  0  0  0  0
 27 52  1  0  0  0  0
 28 30  2  0  0  0  0
 28 53  1  0  0  0  0
 29 30  1  0  0  0  0
 29 54  1  0  0  0  0
M  END
> <PUBCHEM_COMPOUND_CID>
25227436

> <PUBCHEM_COMPOUND_CANONICALIZED>
1

> <PUBCHEM_CACTVS_COMPLEXITY>
580

> <PUBCHEM_CACTVS_HBOND_ACCEPTOR>
6

> <PUBCHEM_CACTVS_HBOND_DONOR>
4

> <PUBCHEM_CACTVS_ROTATABLE_BOND>
6

> <PUBCHEM_CACTVS_SUBSKEYS>
AAADceB7sAAEAAAAAAAAAAAAAAAAAWAAAAA8WIAAAAAAAFgB/AAAHgIQCAAADKrhmyY9sN/JkgCoAjN3dACCgCmxB6AJ2aG4ZpiIePLB29GUZAhulgLIyCeUwKAOBAAAAAAAAAAIAAAAAAAAAAAAAAAAAA==

> <PUBCHEM_IUPAC_OPENEYE_NAME>
4-amino-N-[(1S)-1-(4-chlorophenyl)-3-hydroxy-propyl]-1-(7H-pyrrolo[2,3-d]pyrimidin-4-yl)piperidine-4-carboxamide

> <PUBCHEM_IUPAC_CAS_NAME>
4-amino-N-[(1S)-1-(4-chlorophenyl)-3-hydroxypropyl]-1-(7H-pyrrolo[2,3-d]pyrimidin-4-yl)-4-piperidinecarboxamide

> <PUBCHEM_IUPAC_NAME>
4-amino-N-[(1S)-1-(4-chlorophenyl)-3-hydroxypropyl]-1-(7H-pyrrolo[2,3-d]pyrimidin-4-yl)piperidine-4-carboxamide

> <PUBCHEM_IUPAC_SYSTEMATIC_NAME>
4-azanyl-N-[(1S)-1-(4-chlorophenyl)-3-oxidanyl-propyl]-1-(7H-pyrrolo[2,3-d]pyrimidin-4-yl)piperidine-4-carboxamide

> <PUBCHEM_IUPAC_TRADITIONAL_NAME>
4-amino-N-[(1S)-1-(4-chlorophenyl)-3-hydroxy-propyl]-1-(7H-pyrrolo[2,3-d]pyrimidin-4-yl)isonipecotamide

> <PUBCHEM_IUPAC_INCHI>
InChI=1S/C21H25ClN6O2/c22-15-3-1-14(2-4-15)17(6-12-29)27-20(30)21(23)7-10-28(11-8-21)19-16-5-9-24-18(16)25-13-26-19/h1-5,9,13,17,29H,6-8,10-12,23H2,(H,27,30)(H,24,25,26)/t17-/m0/s1

> <PUBCHEM_IUPAC_INCHIKEY>
JDUBGYFRJFOXQC-KRWDZBQOSA-N

> <PUBCHEM_XLOGP3_AA>
1.7

> <PUBCHEM_EXACT_MASS>
428.172752

> <PUBCHEM_MOLECULAR_FORMULA>
C21H25ClN6O2

> <PUBCHEM_MOLECULAR_WEIGHT>
428.9152

> <PUBCHEM_OPENEYE_CAN_SMILES>
C1CN(CCC1(C(=O)NC(CCO)C2=CC=C(C=C2)Cl)N)C3=NC=NC4=C3C=CN4

> <PUBCHEM_OPENEYE_ISO_SMILES>
C1CN(CCC1(C(=O)N[C@@H](CCO)C2=CC=C(C=C2)Cl)N)C3=NC=NC4=C3C=CN4

> <PUBCHEM_CACTVS_TPSA>
120

> <PUBCHEM_MONOISOTOPIC_WEIGHT>
428.172752

> <PUBCHEM_TOTAL_CHARGE>
0

> <PUBCHEM_HEAVY_ATOM_COUNT>
30

> <PUBCHEM_ATOM_DEF_STEREO_COUNT>
1

> <PUBCHEM_ATOM_UDEF_STEREO_COUNT>
0

> <PUBCHEM_BOND_DEF_STEREO_COUNT>
0

> <PUBCHEM_BOND_UDEF_STEREO_COUNT>
0

> <PUBCHEM_ISOTOPIC_ATOM_COUNT>
0

> <PUBCHEM_COMPONENT_COUNT>
1

> <PUBCHEM_CACTVS_TAUTO_COUNT>
6

> <PUBCHEM_COORDINATE_TYPE>
1
5
255

> <PUBCHEM_BONDANNOTATIONS>
16  18  8
18  21  8
18  22  8
20  24  8
20  25  8
22  27  8
24  28  8
25  29  8
28  30  8
29  30  8
17  6  6
7  16  8
7  26  8
8  21  8
8  27  8
9  21  8
9  26  8

$$$$
25262792
  -OEChem-11121519512D

 64 68  0     1  0  0  0  0  0999 V2000
    5.4641   -3.2637    0.0000 O   0  0  0  0  0  0  0  0  0  0  0  0
    2.0000    2.7363    0.0000 O   0  0  0  0  0  0  0  0  0  0  0  0
   11.5981    0.2704    0.0000 O   0  0  0  0  0  0  0  0  0  0  0  0
    5.4641   -1.2637    0.0000 N   0  0  0  0  0  0  0  0  0  0  0  0
    3.7320    1.7363    0.0000 N   0  0  0  0  0  0  0  0  0  0  0  0
    4.5981    0.2363    0.0000 N   0  0  0  0  0  0  0  0  0  0  0  0
    5.4641    1.7363    0.0000 N   0  0  0  0  0  0  0  0  0  0  0  0
    7.2241    1.7709    0.0000 N   0  0  0  0  0  0  0  0  0  0  0  0
   12.4583    1.7738    0.0000 N   0  0  0  0  0  0  0  0  0  0  0  0
    4.5981   -1.7637    0.0000 C   0  0  2  0  0  0  0  0  0  0  0  0
    3.7320    2.7363    0.0000 C   0  0  2  0  0  0  0  0  0  0  0  0
    6.3301   -1.7637    0.0000 C   0  0  0  0  0  0  0  0  0  0  0  0
    4.5981   -2.7637    0.0000 C   0  0  0  0  0  0  0  0  0  0  0  0
    5.4641   -0.2637    0.0000 C   0  0  0  0  0  0  0  0  0  0  0  0
    2.8660    1.2363    0.0000 C   0  0  0  0  0  0  0  0  0  0  0  0
    2.8660    3.2363    0.0000 C   0  0  0  0  0  0  0  0  0  0  0  0
    6.3301   -2.7637    0.0000 C   0  0  0  0  0  0  0  0  0  0  0  0
    4.5981    1.2363    0.0000 C   0  0  0  0  0  0  0  0  0  0  0  0
    2.0000    1.7363    0.0000 C   0  0  0  0  0  0  0  0  0  0  0  0
    3.7320   -1.2637    0.0000 C   0  0  0  0  0  0  0  0  0  0  0  0
    6.3301    0.2363    0.0000 C   0  0  0  0  0  0  0  0  0  0  0  0
    4.5981    3.2363    0.0000 C   0  0  0  0  0  0  0  0  0  0  0  0
    6.3301    1.2363    0.0000 C   0  0  0  0  0  0  0  0  0  0  0  0
    7.2241   -0.2984    0.0000 C   0  0  0  0  0  0  0  0  0  0  0  0
    8.1301    0.2154    0.0000 C   0  0  0  0  0  0  0  0  0  0  0  0
    8.1301    1.2571    0.0000 C   0  0  0  0  0  0  0  0  0  0  0  0
    8.9942    1.7604    0.0000 C   0  0  0  0  0  0  0  0  0  0  0  0
    9.8622    1.2638    0.0000 C   0  0  0  0  0  0  0  0  0  0  0  0
    8.9904    2.7604    0.0000 C   0  0  0  0  0  0  0  0  0  0  0  0
   10.7263    1.7671    0.0000 C   0  0  0  0  0  0  0  0  0  0  0  0
    9.8545    3.2637    0.0000 C   0  0  0  0  0  0  0  0  0  0  0  0
   10.7224    2.7671    0.0000 C   0  0  0  0  0  0  0  0  0  0  0  0
   11.5942    1.2704    0.0000 C   0  0  0  0  0  0  0  0  0  0  0  0
   13.3263    1.2771    0.0000 C   0  0  0  0  0  0  0  0  0  0  0  0
    4.5981   -1.1437    0.0000 H   0  0  0  0  0  0  0  0  0  0  0  0
    4.2690    2.4263    0.0000 H   0  0  0  0  0  0  0  0  0  0  0  0
    6.9407   -1.8714    0.0000 H   0  0  0  0  0  0  0  0  0  0  0  0
    6.5422   -1.1811    0.0000 H   0  0  0  0  0  0  0  0  0  0  0  0
    3.9875   -2.6561    0.0000 H   0  0  0  0  0  0  0  0  0  0  0  0
    4.3860   -3.3464    0.0000 H   0  0  0  0  0  0  0  0  0  0  0  0
    2.4675    0.7613    0.0000 H   0  0  0  0  0  0  0  0  0  0  0  0
    3.2646    0.7613    0.0000 H   0  0  0  0  0  0  0  0  0  0  0  0
    3.2646    3.7112    0.0000 H   0  0  0  0  0  0  0  0  0  0  0  0
    2.4675    3.7112    0.0000 H   0  0  0  0  0  0  0  0  0  0  0  0
    6.5422   -3.3464    0.0000 H   0  0  0  0  0  0  0  0  0  0  0  0
    6.9407   -2.6561    0.0000 H   0  0  0  0  0  0  0  0  0  0  0  0
    1.3894    1.8439    0.0000 H   0  0  0  0  0  0  0  0  0  0  0  0
    1.7880    1.1536    0.0000 H   0  0  0  0  0  0  0  0  0  0  0  0
    4.0420   -0.7268    0.0000 H   0  0  0  0  0  0  0  0  0  0  0  0
    3.1951   -0.9537    0.0000 H   0  0  0  0  0  0  0  0  0  0  0  0
    3.4220   -1.8007    0.0000 H   0  0  0  0  0  0  0  0  0  0  0  0
    4.9081    2.6993    0.0000 H   0  0  0  0  0  0  0  0  0  0  0  0
    5.1350    3.5463    0.0000 H   0  0  0  0  0  0  0  0  0  0  0  0
    4.2881    3.7732    0.0000 H   0  0  0  0  0  0  0  0  0  0  0  0
    7.2169   -0.9184    0.0000 H   0  0  0  0  0  0  0  0  0  0  0  0
    8.6659   -0.0966    0.0000 H   0  0  0  0  0  0  0  0  0  0  0  0
    9.8646    0.6438    0.0000 H   0  0  0  0  0  0  0  0  0  0  0  0
    8.4522    3.0683    0.0000 H   0  0  0  0  0  0  0  0  0  0  0  0
    9.8521    3.8837    0.0000 H   0  0  0  0  0  0  0  0  0  0  0  0
   11.2581    3.0792    0.0000 H   0  0  0  0  0  0  0  0  0  0  0  0
   12.4559    2.3938    0.0000 H   0  0  0  0  0  0  0  0  0  0  0  0
   13.0183    0.7390    0.0000 H   0  0  0  0  0  0  0  0  0  0  0  0
   13.8644    0.9692    0.0000 H   0  0  0  0  0  0  0  0  0  0  0  0
   13.6342    1.8152    0.0000 H   0  0  0  0  0  0  0  0  0  0  0  0
  1 13  1  0  0  0  0
  1 17  1  0  0  0  0
  2 16  1  0  0  0  0
  2 19  1  0  0  0  0
  3 33  2  0  0  0  0
  4 10  1  0  0  0  0
  4 12  1  0  0  0  0
  4 14  1  0  0  0  0
  5 11  1  0  0  0  0
  5 15  1  0  0  0  0
  5 18  1  0  0  0  0
  6 14  2  0  0  0  0
  6 18  1  0  0  0  0
  7 18  2  0  0  0  0
  7 23  1  0  0  0  0
  8 23  1  0  0  0  0
  8 26  2  0  0  0  0
  9 33  1  0  0  0  0
  9 34  1  0  0  0  0
  9 61  1  0  0  0  0
 10 13  1  0  0  0  0
 10 20  1  6  0  0  0
 10 35  1  0  0  0  0
 11 16  1  0  0  0  0
 11 22  1  6  0  0  0
 11 36  1  0  0  0  0
 12 17  1  0  0  0  0
 12 37  1  0  0  0  0
 12 38  1  0  0  0  0
 13 39  1  0  0  0  0
 13 40  1  0  0  0  0
 14 21  1  0  0  0  0
 15 19  1  0  0  0  0
 15 41  1  0  0  0  0
 15 42  1  0  0  0  0
 16 43  1  0  0  0  0
 16 44  1  0  0  0  0
 17 45  1  0  0  0  0
 17 46  1  0  0  0  0
 19 47  1  0  0  0  0
 19 48  1  0  0  0  0
 20 49  1  0  0  0  0
 20 50  1  0  0  0  0
 20 51  1  0  0  0  0
 21 23  2  0  0  0  0
 21 24  1  0  0  0  0
 22 52  1  0  0  0  0
 22 53  1  0  0  0  0
 22 54  1  0  0  0  0
 24 25  2  0  0  0  0
 24 55  1  0  0  0  0
 25 26  1  0  0  0  0
 25 56  1  0  0  0  0
 26 27  1  0  0  0  0
 27 28  2  0  0  0  0
 27 29  1  0  0  0  0
 28 30  1  0  0  0  0
 28 57  1  0  0  0  0
 29 31  2  0  0  0  0
 29 58  1  0  0  0  0
 30 32  2  0  0  0  0
 30 33  1  0  0  0  0
 31 32  1  0  0  0  0
 31 59  1  0  0  0  0
 32 60  1  0  0  0  0
 34 62  1  0  0  0  0
 34 63  1  0  0  0  0
 34 64  1  0  0  0  0
M  END
> <PUBCHEM_COMPOUND_CID>
25262792

> <PUBCHEM_COMPOUND_CANONICALIZED>
1

> <PUBCHEM_CACTVS_COMPLEXITY>
698

> <PUBCHEM_CACTVS_HBOND_ACCEPTOR>
8

> <PUBCHEM_CACTVS_HBOND_DONOR>
1

> <PUBCHEM_CACTVS_ROTATABLE_BOND>
4

> <PUBCHEM_CACTVS_SUBSKEYS>
AAADceB7sAAAAAAAAAAAAAAAAAAAAAAAAAA8WLFiAAAAAACx/AAAHgAQAAAADCjhnwYzsN/IFACoAydydACCgCklAqAJmKE4ZNiKKPLA3dGHJQhoggLYyacYicCeAAACAAAAAAAAAAQAAAAAAAAAAAAAAA==

> <PUBCHEM_IUPAC_OPENEYE_NAME>
3-[2,4-bis[(3S)-3-methylmorpholin-4-yl]pyrido[2,3-d]pyrimidin-7-yl]-N-methyl-benzamide

> <PUBCHEM_IUPAC_CAS_NAME>
3-[2,4-bis[(3S)-3-methyl-4-morpholinyl]-7-pyrido[2,3-d]pyrimidinyl]-N-methylbenzamide

> <PUBCHEM_IUPAC_NAME>
3-[2,4-bis[(3S)-3-methylmorpholin-4-yl]pyrido[2,3-d]pyrimidin-7-yl]-N-methylbenzamide

> <PUBCHEM_IUPAC_SYSTEMATIC_NAME>
3-[2,4-bis[(3S)-3-methylmorpholin-4-yl]pyrido[2,3-d]pyrimidin-7-yl]-N-methyl-benzamide

> <PUBCHEM_IUPAC_TRADITIONAL_NAME>
3-[2,4-bis[(3S)-3-methylmorpholino]pyrido[2,3-d]pyrimidin-7-yl]-N-methyl-benzamide

> <PUBCHEM_IUPAC_INCHI>
InChI=1S/C25H30N6O3/c1-16-14-33-11-9-30(16)23-20-7-8-21(18-5-4-6-19(13-18)24(32)26-3)27-22(20)28-25(29-23)31-10-12-34-15-17(31)2/h4-8,13,16-17H,9-12,14-15H2,1-3H3,(H,26,32)/t16-,17-/m0/s1

> <PUBCHEM_IUPAC_INCHIKEY>
JUSFANSTBFGBAF-IRXDYDNUSA-N

> <PUBCHEM_XLOGP3_AA>
2.8

> <PUBCHEM_EXACT_MASS>
462.237939

> <PUBCHEM_MOLECULAR_FORMULA>
C25H30N6O3

> <PUBCHEM_MOLECULAR_WEIGHT>
462.5441

> <PUBCHEM_OPENEYE_CAN_SMILES>
CC1COCCN1C2=NC(=NC3=C2C=CC(=N3)C4=CC(=CC=C4)C(=O)NC)N5CCOCC5C

> <PUBCHEM_OPENEYE_ISO_SMILES>
C[C@H]1COCCN1C2=NC(=NC3=C2C=CC(=N3)C4=CC(=CC=C4)C(=O)NC)N5CCOC[C@@H]5C

> <PUBCHEM_CACTVS_TPSA>
92.7

> <PUBCHEM_MONOISOTOPIC_WEIGHT>
462.237939

> <PUBCHEM_TOTAL_CHARGE>
0

> <PUBCHEM_HEAVY_ATOM_COUNT>
34

> <PUBCHEM_ATOM_DEF_STEREO_COUNT>
2

> <PUBCHEM_ATOM_UDEF_STEREO_COUNT>
0

> <PUBCHEM_BOND_DEF_STEREO_COUNT>
0

> <PUBCHEM_BOND_UDEF_STEREO_COUNT>
0

> <PUBCHEM_ISOTOPIC_ATOM_COUNT>
0

> <PUBCHEM_COMPONENT_COUNT>
1

> <PUBCHEM_CACTVS_TAUTO_COUNT>
2

> <PUBCHEM_COORDINATE_TYPE>
1
5
255

> <PUBCHEM_BONDANNOTATIONS>
10  20  6
11  22  6
14  21  8
21  23  8
21  24  8
24  25  8
25  26  8
27  28  8
27  29  8
28  30  8
29  31  8
30  32  8
31  32  8
6  14  8
6  18  8
7  18  8
7  23  8
8  23  8
8  26  8

$$$$
25262965
  -OEChem-11121519512D

 65 69  0     1  0  0  0  0  0999 V2000
    5.4641   -3.7671    0.0000 O   0  0  0  0  0  0  0  0  0  0  0  0
    2.0000    2.2329    0.0000 O   0  0  0  0  0  0  0  0  0  0  0  0
   11.5865    2.7671    0.0000 O   0  0  0  0  0  0  0  0  0  0  0  0
   11.5981   -0.2329    0.0000 O   0  0  0  0  0  0  0  0  0  0  0  0
    5.4641   -1.7671    0.0000 N   0  0  0  0  0  0  0  0  0  0  0  0
    3.7320    1.2329    0.0000 N   0  0  0  0  0  0  0  0  0  0  0  0
    4.5981   -0.2671    0.0000 N   0  0  0  0  0  0  0  0  0  0  0  0
    5.4641    1.2329    0.0000 N   0  0  0  0  0  0  0  0  0  0  0  0
    7.2241    1.2676    0.0000 N   0  0  0  0  0  0  0  0  0  0  0  0
    4.5981   -2.2671    0.0000 C   0  0  2  0  0  0  0  0  0  0  0  0
    3.7320    2.2329    0.0000 C   0  0  2  0  0  0  0  0  0  0  0  0
    6.3301   -2.2671    0.0000 C   0  0  0  0  0  0  0  0  0  0  0  0
    4.5981   -3.2671    0.0000 C   0  0  0  0  0  0  0  0  0  0  0  0
    5.4641   -0.7671    0.0000 C   0  0  0  0  0  0  0  0  0  0  0  0
    2.8660    0.7329    0.0000 C   0  0  0  0  0  0  0  0  0  0  0  0
    2.8660    2.7329    0.0000 C   0  0  0  0  0  0  0  0  0  0  0  0
    6.3301   -3.2671    0.0000 C   0  0  0  0  0  0  0  0  0  0  0  0
    4.5981    0.7329    0.0000 C   0  0  0  0  0  0  0  0  0  0  0  0
    2.0000    1.2329    0.0000 C   0  0  0  0  0  0  0  0  0  0  0  0
    3.7320   -1.7671    0.0000 C   0  0  0  0  0  0  0  0  0  0  0  0
    6.3301   -0.2671    0.0000 C   0  0  0  0  0  0  0  0  0  0  0  0
    4.5981    2.7329    0.0000 C   0  0  0  0  0  0  0  0  0  0  0  0
    6.3301    0.7329    0.0000 C   0  0  0  0  0  0  0  0  0  0  0  0
    7.2241   -0.8017    0.0000 C   0  0  0  0  0  0  0  0  0  0  0  0
    8.1301    0.7537    0.0000 C   0  0  0  0  0  0  0  0  0  0  0  0
    8.1301   -0.2879    0.0000 C   0  0  0  0  0  0  0  0  0  0  0  0
    8.9942    1.2571    0.0000 C   0  0  0  0  0  0  0  0  0  0  0  0
    9.8622    0.7604    0.0000 C   0  0  0  0  0  0  0  0  0  0  0  0
    8.9904    2.2571    0.0000 C   0  0  0  0  0  0  0  0  0  0  0  0
   10.7263    1.2638    0.0000 C   0  0  0  0  0  0  0  0  0  0  0  0
   10.7224    2.2638    0.0000 C   0  0  0  0  0  0  0  0  0  0  0  0
    9.8545    2.7604    0.0000 C   0  0  0  0  0  0  0  0  0  0  0  0
   11.5942    0.7671    0.0000 C   0  0  0  0  0  0  0  0  0  0  0  0
   11.5826    3.7671    0.0000 C   0  0  0  0  0  0  0  0  0  0  0  0
    4.5981   -1.6471    0.0000 H   0  0  0  0  0  0  0  0  0  0  0  0
    4.2690    1.9229    0.0000 H   0  0  0  0  0  0  0  0  0  0  0  0
    6.9407   -2.3747    0.0000 H   0  0  0  0  0  0  0  0  0  0  0  0
    6.5422   -1.6845    0.0000 H   0  0  0  0  0  0  0  0  0  0  0  0
    3.9875   -3.1594    0.0000 H   0  0  0  0  0  0  0  0  0  0  0  0
    4.3860   -3.8497    0.0000 H   0  0  0  0  0  0  0  0  0  0  0  0
    2.4675    0.2580    0.0000 H   0  0  0  0  0  0  0  0  0  0  0  0
    3.2646    0.2580    0.0000 H   0  0  0  0  0  0  0  0  0  0  0  0
    3.2646    3.2079    0.0000 H   0  0  0  0  0  0  0  0  0  0  0  0
    2.4675    3.2079    0.0000 H   0  0  0  0  0  0  0  0  0  0  0  0
    6.5422   -3.8497    0.0000 H   0  0  0  0  0  0  0  0  0  0  0  0
    6.9407   -3.1594    0.0000 H   0  0  0  0  0  0  0  0  0  0  0  0
    1.3894    1.3406    0.0000 H   0  0  0  0  0  0  0  0  0  0  0  0
    1.7880    0.6503    0.0000 H   0  0  0  0  0  0  0  0  0  0  0  0
    4.0420   -1.2301    0.0000 H   0  0  0  0  0  0  0  0  0  0  0  0
    3.1951   -1.4571    0.0000 H   0  0  0  0  0  0  0  0  0  0  0  0
    3.4220   -2.3040    0.0000 H   0  0  0  0  0  0  0  0  0  0  0  0
    4.9081    2.1960    0.0000 H   0  0  0  0  0  0  0  0  0  0  0  0
    5.1350    3.0429    0.0000 H   0  0  0  0  0  0  0  0  0  0  0  0
    4.2881    3.2699    0.0000 H   0  0  0  0  0  0  0  0  0  0  0  0
    7.2169   -1.4217    0.0000 H   0  0  0  0  0  0  0  0  0  0  0  0
    8.6659   -0.6000    0.0000 H   0  0  0  0  0  0  0  0  0  0  0  0
    9.8646    0.1404    0.0000 H   0  0  0  0  0  0  0  0  0  0  0  0
    8.4522    2.5650    0.0000 H   0  0  0  0  0  0  0  0  0  0  0  0
    9.8521    3.3804    0.0000 H   0  0  0  0  0  0  0  0  0  0  0  0
   12.2052    0.6618    0.0000 H   0  0  0  0  0  0  0  0  0  0  0  0
   11.8040    1.3505    0.0000 H   0  0  0  0  0  0  0  0  0  0  0  0
   12.1362   -0.5408    0.0000 H   0  0  0  0  0  0  0  0  0  0  0  0
   12.2026    3.7695    0.0000 H   0  0  0  0  0  0  0  0  0  0  0  0
   11.5803    4.3871    0.0000 H   0  0  0  0  0  0  0  0  0  0  0  0
   10.9627    3.7647    0.0000 H   0  0  0  0  0  0  0  0  0  0  0  0
  1 13  1  0  0  0  0
  1 17  1  0  0  0  0
  2 16  1  0  0  0  0
  2 19  1  0  0  0  0
  3 31  1  0  0  0  0
  3 34  1  0  0  0  0
  4 33  1  0  0  0  0
  4 62  1  0  0  0  0
  5 10  1  0  0  0  0
  5 12  1  0  0  0  0
  5 14  1  0  0  0  0
  6 11  1  0  0  0  0
  6 15  1  0  0  0  0
  6 18  1  0  0  0  0
  7 14  2  0  0  0  0
  7 18  1  0  0  0  0
  8 18  2  0  0  0  0
  8 23  1  0  0  0  0
  9 23  1  0  0  0  0
  9 25  2  0  0  0  0
 10 13  1  0  0  0  0
 10 20  1  6  0  0  0
 10 35  1  0  0  0  0
 11 16  1  0  0  0  0
 11 22  1  6  0  0  0
 11 36  1  0  0  0  0
 12 17  1  0  0  0  0
 12 37  1  0  0  0  0
 12 38  1  0  0  0  0
 13 39  1  0  0  0  0
 13 40  1  0  0  0  0
 14 21  1  0  0  0  0
 15 19  1  0  0  0  0
 15 41  1  0  0  0  0
 15 42  1  0  0  0  0
 16 43  1  0  0  0  0
 16 44  1  0  0  0  0
 17 45  1  0  0  0  0
 17 46  1  0  0  0  0
 19 47  1  0  0  0  0
 19 48  1  0  0  0  0
 20 49  1  0  0  0  0
 20 50  1  0  0  0  0
 20 51  1  0  0  0  0
 21 23  2  0  0  0  0
 21 24  1  0  0  0  0
 22 52  1  0  0  0  0
 22 53  1  0  0  0  0
 22 54  1  0  0  0  0
 24 26  2  0  0  0  0
 24 55  1  0  0  0  0
 25 26  1  0  0  0  0
 25 27  1  0  0  0  0
 26 56  1  0  0  0  0
 27 28  2  0  0  0  0
 27 29  1  0  0  0  0
 28 30  1  0  0  0  0
 28 57  1  0  0  0  0
 29 32  2  0  0  0  0
 29 58  1  0  0  0  0
 30 31  2  0  0  0  0
 30 33  1  0  0  0  0
 31 32  1  0  0  0  0
 32 59  1  0  0  0  0
 33 60  1  0  0  0  0
 33 61  1  0  0  0  0
 34 63  1  0  0  0  0
 34 64  1  0  0  0  0
 34 65  1  0  0  0  0
M  END
> <PUBCHEM_COMPOUND_CID>
25262965

> <PUBCHEM_COMPOUND_CANONICALIZED>
1

> <PUBCHEM_CACTVS_COMPLEXITY>
659

> <PUBCHEM_CACTVS_HBOND_ACCEPTOR>
9

> <PUBCHEM_CACTVS_HBOND_DONOR>
1

> <PUBCHEM_CACTVS_ROTATABLE_BOND>
5

> <PUBCHEM_CACTVS_SUBSKEYS>
AAADceB7uAAAAAAAAAAAAAAAAAAAAAAAAAA8WLFiAAAAAACx/AAAHgAACAAADCzhnwYztt8IFgCgAyZiZACCiCkhIqAJmCA+bJiOP+LE+duHdChtwBPY+CeQ0OMOIAACAAAIAABAAAQAABAAAAAAAAAAAA==

> <PUBCHEM_IUPAC_OPENEYE_NAME>
[5-[2,4-bis[(3S)-3-methylmorpholin-4-yl]pyrido[2,3-d]pyrimidin-7-yl]-2-methoxy-phenyl]methanol

> <PUBCHEM_IUPAC_CAS_NAME>
[5-[2,4-bis[(3S)-3-methyl-4-morpholinyl]-7-pyrido[2,3-d]pyrimidinyl]-2-methoxyphenyl]methanol

> <PUBCHEM_IUPAC_NAME>
[5-[2,4-bis[(3S)-3-methylmorpholin-4-yl]pyrido[2,3-d]pyrimidin-7-yl]-2-methoxyphenyl]methanol

> <PUBCHEM_IUPAC_SYSTEMATIC_NAME>
[5-[2,4-bis[(3S)-3-methylmorpholin-4-yl]pyrido[2,3-d]pyrimidin-7-yl]-2-methoxy-phenyl]methanol

> <PUBCHEM_IUPAC_TRADITIONAL_NAME>
[5-[2,4-bis[(3S)-3-methylmorpholino]pyrido[2,3-d]pyrimidin-7-yl]-2-methoxy-phenyl]methanol

> <PUBCHEM_IUPAC_INCHI>
InChI=1S/C25H31N5O4/c1-16-14-33-10-8-29(16)24-20-5-6-21(18-4-7-22(32-3)19(12-18)13-31)26-23(20)27-25(28-24)30-9-11-34-15-17(30)2/h4-7,12,16-17,31H,8-11,13-15H2,1-3H3/t16-,17-/m0/s1

> <PUBCHEM_IUPAC_INCHIKEY>
KVLFRAWTRWDEDF-IRXDYDNUSA-N

> <PUBCHEM_XLOGP3_AA>
2.6

> <PUBCHEM_EXACT_MASS>
465.237604

> <PUBCHEM_MOLECULAR_FORMULA>
C25H31N5O4

> <PUBCHEM_MOLECULAR_WEIGHT>
465.54474

> <PUBCHEM_OPENEYE_CAN_SMILES>
CC1COCCN1C2=NC(=NC3=C2C=CC(=N3)C4=CC(=C(C=C4)OC)CO)N5CCOCC5C

> <PUBCHEM_OPENEYE_ISO_SMILES>
C[C@H]1COCCN1C2=NC(=NC3=C2C=CC(=N3)C4=CC(=C(C=C4)OC)CO)N5CCOC[C@@H]5C

> <PUBCHEM_CACTVS_TPSA>
93.1

> <PUBCHEM_MONOISOTOPIC_WEIGHT>
465.237604

> <PUBCHEM_TOTAL_CHARGE>
0

> <PUBCHEM_HEAVY_ATOM_COUNT>
34

> <PUBCHEM_ATOM_DEF_STEREO_COUNT>
2

> <PUBCHEM_ATOM_UDEF_STEREO_COUNT>
0

> <PUBCHEM_BOND_DEF_STEREO_COUNT>
0

> <PUBCHEM_BOND_UDEF_STEREO_COUNT>
0

> <PUBCHEM_ISOTOPIC_ATOM_COUNT>
0

> <PUBCHEM_COMPONENT_COUNT>
1

> <PUBCHEM_CACTVS_TAUTO_COUNT>
1

> <PUBCHEM_COORDINATE_TYPE>
1
5
255

> <PUBCHEM_BONDANNOTATIONS>
10  20  6
11  22  6
14  21  8
21  23  8
21  24  8
24  26  8
25  26  8
27  28  8
27  29  8
28  30  8
29  32  8
30  31  8
31  32  8
7  14  8
7  18  8
8  18  8
8  23  8
9  23  8
9  25  8

$$$$
44199317
  -OEChem-11121519512D

 51 54  0     0  0  0  0  0  0999 V2000
    6.3301   -3.0000    0.0000 F   0  0  0  0  0  0  0  0  0  0  0  0
    2.8660   -3.0000    0.0000 O   0  0  0  0  0  0  0  0  0  0  0  0
    6.3301    0.0000    0.0000 O   0  0  0  0  0  0  0  0  0  0  0  0
    9.7942    3.0000    0.0000 O   0  0  0  0  0  0  0  0  0  0  0  0
    5.4641   -1.5000    0.0000 N   0  0  0  0  0  0  0  0  0  0  0  0
    8.9282    0.5000    0.0000 N   0  0  0  0  0  0  0  0  0  0  0  0
    8.9282    1.5000    0.0000 N   0  0  0  0  0  0  0  0  0  0  0  0
    3.7320   -2.5000    0.0000 C   0  0  0  0  0  0  0  0  0  0  0  0
    3.7320   -1.5000    0.0000 C   0  0  0  0  0  0  0  0  0  0  0  0
    4.5981   -3.0000    0.0000 C   0  0  0  0  0  0  0  0  0  0  0  0
    4.5981   -1.0000    0.0000 C   0  0  0  0  0  0  0  0  0  0  0  0
    5.4641   -2.5000    0.0000 C   0  0  0  0  0  0  0  0  0  0  0  0
    6.3301   -1.0000    0.0000 C   0  0  0  0  0  0  0  0  0  0  0  0
    7.1962   -1.5000    0.0000 C   0  0  0  0  0  0  0  0  0  0  0  0
    2.0000   -2.5000    0.0000 C   0  0  0  0  0  0  0  0  0  0  0  0
    8.0622   -1.0000    0.0000 C   0  0  0  0  0  0  0  0  0  0  0  0
    8.9282   -1.5000    0.0000 C   0  0  0  0  0  0  0  0  0  0  0  0
    7.1962   -2.5000    0.0000 C   0  0  0  0  0  0  0  0  0  0  0  0
    9.7942   -1.0000    0.0000 C   0  0  0  0  0  0  0  0  0  0  0  0
    8.9282   -2.5000    0.0000 C   0  0  0  0  0  0  0  0  0  0  0  0
    9.7942    0.0000    0.0000 C   0  0  0  0  0  0  0  0  0  0  0  0
    8.0622   -3.0000    0.0000 C   0  0  0  0  0  0  0  0  0  0  0  0
   10.6603    0.5000    0.0000 C   0  0  0  0  0  0  0  0  0  0  0  0
   10.6603    1.5000    0.0000 C   0  0  0  0  0  0  0  0  0  0  0  0
   11.5542   -0.0347    0.0000 C   0  0  0  0  0  0  0  0  0  0  0  0
    9.7942    2.0000    0.0000 C   0  0  0  0  0  0  0  0  0  0  0  0
   11.5542    2.0347    0.0000 C   0  0  0  0  0  0  0  0  0  0  0  0
   12.4603    0.4792    0.0000 C   0  0  0  0  0  0  0  0  0  0  0  0
   12.4603    1.5208    0.0000 C   0  0  0  0  0  0  0  0  0  0  0  0
    3.7320   -3.1200    0.0000 H   0  0  0  0  0  0  0  0  0  0  0  0
    4.1996   -3.4750    0.0000 H   0  0  0  0  0  0  0  0  0  0  0  0
    4.9966   -3.4750    0.0000 H   0  0  0  0  0  0  0  0  0  0  0  0
    3.5200   -0.9174    0.0000 H   0  0  0  0  0  0  0  0  0  0  0  0
    3.1215   -1.6077    0.0000 H   0  0  0  0  0  0  0  0  0  0  0  0
    5.6762   -3.0826    0.0000 H   0  0  0  0  0  0  0  0  0  0  0  0
    6.0747   -2.3923    0.0000 H   0  0  0  0  0  0  0  0  0  0  0  0
    4.9966   -0.5251    0.0000 H   0  0  0  0  0  0  0  0  0  0  0  0
    4.1996   -0.5251    0.0000 H   0  0  0  0  0  0  0  0  0  0  0  0
    8.0622   -0.3800    0.0000 H   0  0  0  0  0  0  0  0  0  0  0  0
    2.3100   -1.9631    0.0000 H   0  0  0  0  0  0  0  0  0  0  0  0
    1.4631   -2.1900    0.0000 H   0  0  0  0  0  0  0  0  0  0  0  0
    1.6900   -3.0369    0.0000 H   0  0  0  0  0  0  0  0  0  0  0  0
   10.0063   -1.5826    0.0000 H   0  0  0  0  0  0  0  0  0  0  0  0
   10.4048   -0.8923    0.0000 H   0  0  0  0  0  0  0  0  0  0  0  0
    9.4651   -2.8100    0.0000 H   0  0  0  0  0  0  0  0  0  0  0  0
    8.0622   -3.6200    0.0000 H   0  0  0  0  0  0  0  0  0  0  0  0
   11.5470   -0.6546    0.0000 H   0  0  0  0  0  0  0  0  0  0  0  0
   11.5470    2.6546    0.0000 H   0  0  0  0  0  0  0  0  0  0  0  0
    8.3913    1.8100    0.0000 H   0  0  0  0  0  0  0  0  0  0  0  0
   12.9960    0.1671    0.0000 H   0  0  0  0  0  0  0  0  0  0  0  0
   12.9960    1.8329    0.0000 H   0  0  0  0  0  0  0  0  0  0  0  0
  1 18  1  0  0  0  0
  2  8  1  0  0  0  0
  2 15  1  0  0  0  0
  3 13  2  0  0  0  0
  4 26  2  0  0  0  0
  5 11  1  0  0  0  0
  5 12  1  0  0  0  0
  5 13  1  0  0  0  0
  6  7  1  0  0  0  0
  6 21  2  0  0  0  0
  7 26  1  0  0  0  0
  7 49  1  0  0  0  0
  8  9  1  0  0  0  0
  8 10  1  0  0  0  0
  8 30  1  0  0  0  0
  9 11  1  0  0  0  0
  9 33  1  0  0  0  0
  9 34  1  0  0  0  0
 10 12  1  0  0  0  0
 10 31  1  0  0  0  0
 10 32  1  0  0  0  0
 11 37  1  0  0  0  0
 11 38  1  0  0  0  0
 12 35  1  0  0  0  0
 12 36  1  0  0  0  0
 13 14  1  0  0  0  0
 14 16  1  0  0  0  0
 14 18  2  0  0  0  0
 15 40  1  0  0  0  0
 15 41  1  0  0  0  0
 15 42  1  0  0  0  0
 16 17  2  0  0  0  0
 16 39  1  0  0  0  0
 17 19  1  0  0  0  0
 17 20  1  0  0  0  0
 18 22  1  0  0  0  0
 19 21  1  0  0  0  0
 19 43  1  0  0  0  0
 19 44  1  0  0  0  0
 20 22  2  0  0  0  0
 20 45  1  0  0  0  0
 21 23  1  0  0  0  0
 22 46  1  0  0  0  0
 23 24  1  0  0  0  0
 23 25  2  0  0  0  0
 24 26  1  0  0  0  0
 24 27  2  0  0  0  0
 25 28  1  0  0  0  0
 25 47  1  0  0  0  0
 27 29  1  0  0  0  0
 27 48  1  0  0  0  0
 28 29  2  0  0  0  0
 28 50  1  0  0  0  0
 29 51  1  0  0  0  0
M  END
> <PUBCHEM_COMPOUND_CID>
44199317

> <PUBCHEM_COMPOUND_CANONICALIZED>
1

> <PUBCHEM_CACTVS_COMPLEXITY>
647

> <PUBCHEM_CACTVS_HBOND_ACCEPTOR>
5

> <PUBCHEM_CACTVS_HBOND_DONOR>
1

> <PUBCHEM_CACTVS_ROTATABLE_BOND>
4

> <PUBCHEM_CACTVS_SUBSKEYS>
AAADceB7MQAAAAAAAAAAAAAAAAAAAAAAAAA8YIEAAAAAAACBQAAAHwAYAAAADBzhmA4yAINiBACoAyFyEACSAAAkAAAaiAE4BNgIILKAlRGEIQhijgCIiYcYiMCOgAACAAAQAAAAAAQAACAAAAAAAAAAAA==

> <PUBCHEM_IUPAC_OPENEYE_NAME>
4-[[4-fluoro-3-(4-methoxypiperidine-1-carbonyl)phenyl]methyl]-2H-phthalazin-1-one

> <PUBCHEM_IUPAC_CAS_NAME>
4-[[4-fluoro-3-[(4-methoxy-1-piperidinyl)-oxomethyl]phenyl]methyl]-2H-phthalazin-1-one

> <PUBCHEM_IUPAC_NAME>
4-[[4-fluoro-3-(4-methoxypiperidine-1-carbonyl)phenyl]methyl]-2H-phthalazin-1-one

> <PUBCHEM_IUPAC_SYSTEMATIC_NAME>
4-[[4-fluoranyl-3-(4-methoxypiperidin-1-yl)carbonyl-phenyl]methyl]-2H-phthalazin-1-one

> <PUBCHEM_IUPAC_TRADITIONAL_NAME>
4-[4-fluoro-3-(4-methoxypiperidine-1-carbonyl)benzyl]-2H-phthalazin-1-one

> <PUBCHEM_IUPAC_INCHI>
InChI=1S/C22H22FN3O3/c1-29-15-8-10-26(11-9-15)22(28)18-12-14(6-7-19(18)23)13-20-16-4-2-3-5-17(16)21(27)25-24-20/h2-7,12,15H,8-11,13H2,1H3,(H,25,27)

> <PUBCHEM_IUPAC_INCHIKEY>
HYNBNUYQTQIHJK-UHFFFAOYSA-N

> <PUBCHEM_XLOGP3_AA>
2.6

> <PUBCHEM_EXACT_MASS>
395.16452

> <PUBCHEM_MOLECULAR_FORMULA>
C22H22FN3O3

> <PUBCHEM_MOLECULAR_WEIGHT>
395.426783

> <PUBCHEM_OPENEYE_CAN_SMILES>
COC1CCN(CC1)C(=O)C2=C(C=CC(=C2)CC3=NNC(=O)C4=CC=CC=C43)F

> <PUBCHEM_OPENEYE_ISO_SMILES>
COC1CCN(CC1)C(=O)C2=C(C=CC(=C2)CC3=NNC(=O)C4=CC=CC=C43)F

> <PUBCHEM_CACTVS_TPSA>
71

> <PUBCHEM_MONOISOTOPIC_WEIGHT>
395.16452

> <PUBCHEM_TOTAL_CHARGE>
0

> <PUBCHEM_HEAVY_ATOM_COUNT>
29

> <PUBCHEM_ATOM_DEF_STEREO_COUNT>
0

> <PUBCHEM_ATOM_UDEF_STEREO_COUNT>
0

> <PUBCHEM_BOND_DEF_STEREO_COUNT>
0

> <PUBCHEM_BOND_UDEF_STEREO_COUNT>
0

> <PUBCHEM_ISOTOPIC_ATOM_COUNT>
0

> <PUBCHEM_COMPONENT_COUNT>
1

> <PUBCHEM_CACTVS_TAUTO_COUNT>
2

> <PUBCHEM_COORDINATE_TYPE>
1
5
255

> <PUBCHEM_BONDANNOTATIONS>
14  16  8
14  18  8
16  17  8
17  20  8
18  22  8
20  22  8
21  23  8
23  24  8
23  25  8
24  26  8
24  27  8
25  28  8
27  29  8
28  29  8
6  21  8
6  7  8
7  26  8

$$$$
44424639
  -OEChem-11121519512D

111119  0     1  0  0  0  0  0999 V2000
    6.7316   -4.8271    0.0000 O   0  0  0  0  0  0  0  0  0  0  0  0
    7.9991   -2.8724    0.0000 O   0  0  0  0  0  0  0  0  0  0  0  0
    8.7422   -3.5415    0.0000 O   0  0  0  0  0  0  0  0  0  0  0  0
    8.5344   -4.5196    0.0000 O   0  0  0  0  0  0  0  0  0  0  0  0
    8.1015    1.6179    0.0000 O   0  0  0  0  0  0  0  0  0  0  0  0
    8.0188   -5.9860    0.0000 O   0  0  0  0  0  0  0  0  0  0  0  0
    6.2997    0.2905    0.0000 O   0  0  0  0  0  0  0  0  0  0  0  0
    5.0237    0.4472    0.0000 O   0  0  0  0  0  0  0  0  0  0  0  0
    4.3052   -2.5984    0.0000 N   0  0  3  0  0  0  0  0  0  0  0  0
    7.3846   -1.5978    0.0000 N   0  0  3  0  0  0  0  0  0  0  0  0
    4.5124    1.8920    0.0000 N   0  0  0  0  0  0  0  0  0  0  0  0
    6.4141    4.6252    0.0000 N   0  0  3  0  0  0  0  0  0  0  0  0
    5.8449   -2.0981    0.0000 C   0  0  1  0  0  0  0  0  0  0  0  0
    5.2195   -2.7927    0.0000 C   0  0  2  0  0  0  0  0  0  0  0  0
    5.5083   -3.6817    0.0000 C   0  0  1  0  0  0  0  0  0  0  0  0
    6.7592   -2.2924    0.0000 C   0  0  2  0  0  0  0  0  0  0  0  0
    7.0480   -3.1814    0.0000 C   0  0  2  0  0  0  0  0  0  0  0  0
    5.4598   -1.0624    0.0000 C   0  0  0  0  0  0  0  0  0  0  0  0
    6.4226   -3.8760    0.0000 C   0  0  2  0  0  0  0  0  0  0  0  0
    6.1815   -0.5145    0.0000 C   0  0  0  0  0  0  0  0  0  0  0  0
    4.0163   -1.7094    0.0000 C   0  0  0  0  0  0  0  0  0  0  0  0
    5.8173   -4.6327    0.0000 C   0  0  0  0  0  0  0  0  0  0  0  0
    7.0958   -0.7088    0.0000 C   0  0  0  0  0  0  0  0  0  0  0  0
    4.8828   -4.3763    0.0000 C   0  0  0  0  0  0  0  0  0  0  0  0
    3.6797   -3.2930    0.0000 C   0  0  0  0  0  0  0  0  0  0  0  0
    3.9686   -4.1820    0.0000 C   0  0  0  0  0  0  0  0  0  0  0  0
    7.7912   -3.8505    0.0000 C   0  0  0  0  0  0  0  0  0  0  0  0
    5.8927    0.3745    0.0000 C   0  0  0  0  0  0  0  0  0  0  0  0
    8.3357   -1.2888    0.0000 C   0  0  0  0  0  0  0  0  0  0  0  0
    7.7212   -0.0142    0.0000 C   0  0  0  0  0  0  0  0  0  0  0  0
    5.1482   -5.3759    0.0000 C   0  0  0  0  0  0  0  0  0  0  0  0
    6.5181    1.0691    0.0000 C   0  0  0  0  0  0  0  0  0  0  0  0
    7.4324    0.8748    0.0000 C   0  0  0  0  0  0  0  0  0  0  0  0
    6.2091    2.0202    0.0000 C   0  0  1  0  0  0  0  0  0  0  0  0
    7.0406   -5.7781    0.0000 C   0  0  0  0  0  0  0  0  0  0  0  0
    7.1602    2.3292    0.0000 C   0  0  0  0  0  0  0  0  0  0  0  0
    5.3181    2.4742    0.0000 C   0  0  0  0  0  0  0  0  0  0  0  0
    5.7551    1.1292    0.0000 C   0  0  0  0  0  0  0  0  0  0  0  0
    7.6142    3.2202    0.0000 C   0  0  1  0  0  0  0  0  0  0  0  0
    6.3715   -6.5213    0.0000 C   0  0  0  0  0  0  0  0  0  0  0  0
    9.4854   -4.2106    0.0000 C   0  0  0  0  0  0  0  0  0  0  0  0
    5.0091    3.4252    0.0000 C   0  0  0  0  0  0  0  0  0  0  0  0
    7.3051    4.1713    0.0000 C   0  0  0  0  0  0  0  0  0  0  0  0
    5.4631    4.3162    0.0000 C   0  0  0  0  0  0  0  0  0  0  0  0
    9.0797    1.4100    0.0000 C   0  0  0  0  0  0  0  0  0  0  0  0
    8.3434    3.9068    0.0000 C   0  0  0  0  0  0  0  0  0  0  0  0
    4.0150    3.4226    0.0000 C   0  0  0  0  0  0  0  0  0  0  0  0
    3.7086    2.4770    0.0000 C   0  0  0  0  0  0  0  0  0  0  0  0
    7.2064    5.2381    0.0000 C   0  0  0  0  0  0  0  0  0  0  0  0
    8.1450    4.8886    0.0000 C   0  0  0  0  0  0  0  0  0  0  0  0
    3.3334    4.2021    0.0000 C   0  0  0  0  0  0  0  0  0  0  0  0
    2.6994    2.2452    0.0000 C   0  0  0  0  0  0  0  0  0  0  0  0
    8.9054    5.5380    0.0000 C   0  0  0  0  0  0  0  0  0  0  0  0
    7.4482    0.3507    0.0000 C   0  0  0  0  0  0  0  0  0  0  0  0
    2.3191    3.9938    0.0000 C   0  0  0  0  0  0  0  0  0  0  0  0
    2.0000    3.0087    0.0000 C   0  0  0  0  0  0  0  0  0  0  0  0
    8.7232    6.5213    0.0000 C   0  0  0  0  0  0  0  0  0  0  0  0
    4.9568   -1.9843    0.0000 H   0  0  0  0  0  0  0  0  0  0  0  0
    7.5906   -2.4691    0.0000 H   0  0  0  0  0  0  0  0  0  0  0  0
    6.0361   -0.8338    0.0000 H   0  0  0  0  0  0  0  0  0  0  0  0
    5.2186   -0.4913    0.0000 H   0  0  0  0  0  0  0  0  0  0  0  0
    7.0290   -4.0049    0.0000 H   0  0  0  0  0  0  0  0  0  0  0  0
    3.7831   -1.1349    0.0000 H   0  0  0  0  0  0  0  0  0  0  0  0
    3.4339   -1.9219    0.0000 H   0  0  0  0  0  0  0  0  0  0  0  0
    6.1990   -5.1213    0.0000 H   0  0  0  0  0  0  0  0  0  0  0  0
    6.3648   -4.3416    0.0000 H   0  0  0  0  0  0  0  0  0  0  0  0
    5.0744   -4.9660    0.0000 H   0  0  0  0  0  0  0  0  0  0  0  0
    3.2980   -2.8044    0.0000 H   0  0  0  0  0  0  0  0  0  0  0  0
    3.1323   -3.5841    0.0000 H   0  0  0  0  0  0  0  0  0  0  0  0
    3.5537   -4.6427    0.0000 H   0  0  0  0  0  0  0  0  0  0  0  0
    5.2862    0.5034    0.0000 H   0  0  0  0  0  0  0  0  0  0  0  0
    8.4140   -2.4116    0.0000 H   0  0  0  0  0  0  0  0  0  0  0  0
    8.5273   -1.8784    0.0000 H   0  0  0  0  0  0  0  0  0  0  0  0
    8.9254   -1.0972    0.0000 H   0  0  0  0  0  0  0  0  0  0  0  0
    8.1441   -0.6991    0.0000 H   0  0  0  0  0  0  0  0  0  0  0  0
    8.3277   -0.1431    0.0000 H   0  0  0  0  0  0  0  0  0  0  0  0
    4.6874   -4.9610    0.0000 H   0  0  0  0  0  0  0  0  0  0  0  0
    4.7333   -5.8366    0.0000 H   0  0  0  0  0  0  0  0  0  0  0  0
    5.6089   -5.7907    0.0000 H   0  0  0  0  0  0  0  0  0  0  0  0
    7.1926    1.7100    0.0000 H   0  0  0  0  0  0  0  0  0  0  0  0
    7.7666    2.2003    0.0000 H   0  0  0  0  0  0  0  0  0  0  0  0
    8.2942    2.7103    0.0000 H   0  0  0  0  0  0  0  0  0  0  0  0
    5.9108   -6.1064    0.0000 H   0  0  0  0  0  0  0  0  0  0  0  0
    5.9566   -6.9820    0.0000 H   0  0  0  0  0  0  0  0  0  0  0  0
    6.8322   -6.9361    0.0000 H   0  0  0  0  0  0  0  0  0  0  0  0
    9.0705   -4.6714    0.0000 H   0  0  0  0  0  0  0  0  0  0  0  0
    9.9461   -4.6255    0.0000 H   0  0  0  0  0  0  0  0  0  0  0  0
    9.9002   -3.7499    0.0000 H   0  0  0  0  0  0  0  0  0  0  0  0
    7.9243    4.2037    0.0000 H   0  0  0  0  0  0  0  0  0  0  0  0
    7.4340    4.7777    0.0000 H   0  0  0  0  0  0  0  0  0  0  0  0
    4.1131    1.4176    0.0000 H   0  0  0  0  0  0  0  0  0  0  0  0
    5.4306    4.9354    0.0000 H   0  0  0  0  0  0  0  0  0  0  0  0
    4.8566    4.4451    0.0000 H   0  0  0  0  0  0  0  0  0  0  0  0
    8.9508    0.8036    0.0000 H   0  0  0  0  0  0  0  0  0  0  0  0
    9.6861    1.2811    0.0000 H   0  0  0  0  0  0  0  0  0  0  0  0
    9.2086    2.0165    0.0000 H   0  0  0  0  0  0  0  0  0  0  0  0
    8.9342    3.7188    0.0000 H   0  0  0  0  0  0  0  0  0  0  0  0
    7.5261    5.7693    0.0000 H   0  0  0  0  0  0  0  0  0  0  0  0
    6.7431    5.6502    0.0000 H   0  0  0  0  0  0  0  0  0  0  0  0
    3.5313    4.7897    0.0000 H   0  0  0  0  0  0  0  0  0  0  0  0
    2.5152    1.6532    0.0000 H   0  0  0  0  0  0  0  0  0  0  0  0
    9.2201    5.0038    0.0000 H   0  0  0  0  0  0  0  0  0  0  0  0
    9.4861    5.7551    0.0000 H   0  0  0  0  0  0  0  0  0  0  0  0
    7.4806   -0.2685    0.0000 H   0  0  0  0  0  0  0  0  0  0  0  0
    8.0673    0.3831    0.0000 H   0  0  0  0  0  0  0  0  0  0  0  0
    7.4157    0.9698    0.0000 H   0  0  0  0  0  0  0  0  0  0  0  0
    1.9056    4.4558    0.0000 H   0  0  0  0  0  0  0  0  0  0  0  0
    1.3942    2.8770    0.0000 H   0  0  0  0  0  0  0  0  0  0  0  0
    9.3328    6.6342    0.0000 H   0  0  0  0  0  0  0  0  0  0  0  0
    8.6102    7.1309    0.0000 H   0  0  0  0  0  0  0  0  0  0  0  0
    8.1135    6.4083    0.0000 H   0  0  0  0  0  0  0  0  0  0  0  0
 19  1  1  6  0  0  0
  1 35  1  0  0  0  0
 17  2  1  1  0  0  0
  2 72  1  0  0  0  0
  3 27  1  0  0  0  0
  3 41  1  0  0  0  0
  4 27  2  0  0  0  0
  5 33  1  0  0  0  0
  5 45  1  0  0  0  0
  6 35  2  0  0  0  0
  7 38  1  0  0  0  0
  7 54  1  0  0  0  0
  8 38  2  0  0  0  0
  9 14  1  0  0  0  0
  9 21  1  0  0  0  0
  9 25  1  0  0  0  0
 10 16  1  0  0  0  0
 10 23  1  0  0  0  0
 10 29  1  0  0  0  0
 11 37  1  0  0  0  0
 11 48  1  0  0  0  0
 11 91  1  0  0  0  0
 12 43  1  0  0  0  0
 12 44  1  0  0  0  0
 12 49  1  0  0  0  0
 13 14  1  0  0  0  0
 13 16  1  0  0  0  0
 13 18  1  6  0  0  0
 13 20  1  0  0  0  0
 14 15  1  0  0  0  0
 14 58  1  1  0  0  0
 15 19  1  0  0  0  0
 15 22  1  1  0  0  0
 15 24  1  0  0  0  0
 16 17  1  0  0  0  0
 16 59  1  6  0  0  0
 17 19  1  0  0  0  0
 17 27  1  0  0  0  0
 18 21  1  0  0  0  0
 18 60  1  0  0  0  0
 18 61  1  0  0  0  0
 19 62  1  0  0  0  0
 20 23  1  0  0  0  0
 20 28  2  0  0  0  0
 21 63  1  0  0  0  0
 21 64  1  0  0  0  0
 22 31  1  0  0  0  0
 22 65  1  0  0  0  0
 22 66  1  0  0  0  0
 23 30  2  0  0  0  0
 24 26  2  0  0  0  0
 24 67  1  0  0  0  0
 25 26  1  0  0  0  0
 25 68  1  0  0  0  0
 25 69  1  0  0  0  0
 26 70  1  0  0  0  0
 28 32  1  0  0  0  0
 28 71  1  0  0  0  0
 29 73  1  0  0  0  0
 29 74  1  0  0  0  0
 29 75  1  0  0  0  0
 30 33  1  0  0  0  0
 30 76  1  0  0  0  0
 31 77  1  0  0  0  0
 31 78  1  0  0  0  0
 31 79  1  0  0  0  0
 32 33  2  0  0  0  0
 32 34  1  0  0  0  0
 34 36  1  0  0  0  0
 34 37  1  0  0  0  0
 34 38  1  1  0  0  0
 35 40  1  0  0  0  0
 36 39  1  0  0  0  0
 36 80  1  0  0  0  0
 36 81  1  0  0  0  0
 37 42  2  0  0  0  0
 39 43  1  0  0  0  0
 39 46  1  0  0  0  0
 39 82  1  6  0  0  0
 40 83  1  0  0  0  0
 40 84  1  0  0  0  0
 40 85  1  0  0  0  0
 41 86  1  0  0  0  0
 41 87  1  0  0  0  0
 41 88  1  0  0  0  0
 42 44  1  0  0  0  0
 42 47  1  0  0  0  0
 43 89  1  0  0  0  0
 43 90  1  0  0  0  0
 44 92  1  0  0  0  0
 44 93  1  0  0  0  0
 45 94  1  0  0  0  0
 45 95  1  0  0  0  0
 45 96  1  0  0  0  0
 46 50  2  0  0  0  0
 46 97  1  0  0  0  0
 47 48  1  0  0  0  0
 47 51  2  0  0  0  0
 48 52  2  0  0  0  0
 49 50  1  0  0  0  0
 49 98  1  0  0  0  0
 49 99  1  0  0  0  0
 50 53  1  0  0  0  0
 51 55  1  0  0  0  0
 51100  1  0  0  0  0
 52 56  1  0  0  0  0
 52101  1  0  0  0  0
 53 57  1  0  0  0  0
 53102  1  0  0  0  0
 53103  1  0  0  0  0
 54104  1  0  0  0  0
 54105  1  0  0  0  0
 54106  1  0  0  0  0
 55 56  2  0  0  0  0
 55107  1  0  0  0  0
 56108  1  0  0  0  0
 57109  1  0  0  0  0
 57110  1  0  0  0  0
 57111  1  0  0  0  0
M  END
> <PUBCHEM_COMPOUND_CID>
44424639

> <PUBCHEM_COMPOUND_CANONICALIZED>
1

> <PUBCHEM_CACTVS_COMPLEXITY>
1690

> <PUBCHEM_CACTVS_HBOND_ACCEPTOR>
11

> <PUBCHEM_CACTVS_HBOND_DONOR>
2

> <PUBCHEM_CACTVS_ROTATABLE_BOND>
10

> <PUBCHEM_CACTVS_SUBSKEYS>
AAADcfB/vAAAAAAAAAAAAAAAAAAAAWLFgAAwYMECAAAWAFiB9AAAHgAQCAAAD3zhngYyzvPJlgCoAyTyTAKCiCAhIiAImSF+bJgPJv7E9ZuGcChn8Bnb6Af62fOfqAACAgAKAABQgAYECBSgAAAAAAAAAA==

> <PUBCHEM_IUPAC_INCHI>
InChI=1S/C45H54N4O8/c1-8-27-19-28-22-44(40(51)55-6,36-30(25-48(23-27)24-28)29-13-10-11-14-33(29)46-36)32-20-31-34(21-35(32)54-5)47(4)38-43(31)16-18-49-17-12-15-42(9-2,37(43)49)39(57-26(3)50)45(38,53)41(52)56-7/h10-15,19-21,28,37-39,46,53H,8-9,16-18,22-25H2,1-7H3/t28-,37-,38+,39+,42+,43+,44-,45+/m0/s1

> <PUBCHEM_IUPAC_INCHIKEY>
GBABOYUKABKIAF-GHYRFKGUSA-N

> <PUBCHEM_XLOGP3>
3.6

> <PUBCHEM_EXACT_MASS>
778.394165

> <PUBCHEM_MOLECULAR_FORMULA>
C45H54N4O8

> <PUBCHEM_MOLECULAR_WEIGHT>
778.93226

> <PUBCHEM_OPENEYE_CAN_SMILES>
CCC1=CC2CC(C3=C(CN(C2)C1)C4=CC=CC=C4N3)(C5=C(C=C6C(=C5)C78CCN9C7C(C=CC9)(C(C(C8N6C)(C(=O)OC)O)OC(=O)C)CC)OC)C(=O)OC

> <PUBCHEM_OPENEYE_ISO_SMILES>
CCC1=C[C@H]2C[C@@](C3=C(CN(C2)C1)C4=CC=CC=C4N3)(C5=C(C=C6C(=C5)[C@]78CCN9[C@H]7[C@@](C=CC9)([C@H]([C@]([C@@H]8N6C)(C(=O)OC)O)OC(=O)C)CC)OC)C(=O)OC

> <PUBCHEM_CACTVS_TPSA>
134

> <PUBCHEM_MONOISOTOPIC_WEIGHT>
778.394165

> <PUBCHEM_TOTAL_CHARGE>
0

> <PUBCHEM_HEAVY_ATOM_COUNT>
57

> <PUBCHEM_ATOM_DEF_STEREO_COUNT>
8

> <PUBCHEM_ATOM_UDEF_STEREO_COUNT>
0

> <PUBCHEM_BOND_DEF_STEREO_COUNT>
0

> <PUBCHEM_BOND_UDEF_STEREO_COUNT>
0

> <PUBCHEM_ISOTOPIC_ATOM_COUNT>
0

> <PUBCHEM_COMPONENT_COUNT>
1

> <PUBCHEM_CACTVS_TAUTO_COUNT>
1

> <PUBCHEM_COORDINATE_TYPE>
1
5
255

> <PUBCHEM_BONDANNOTATIONS>
19  1  6
11  37  8
11  48  8
13  18  6
14  58  5
15  22  5
16  59  6
17  2  5
20  23  8
20  28  8
23  30  8
28  32  8
30  33  8
32  33  8
34  38  5
37  42  8
39  82  6
42  47  8
47  48  8
47  51  8
48  52  8
51  55  8
52  56  8
55  56  8

$$$$
44609510
  -OEChem-11121519512D

 48 50  0     0  0  0  0  0  0999 V2000
    2.0000    0.9239    0.0000 F   0  0  0  0  0  0  0  0  0  0  0  0
    2.3660   -0.4421    0.0000 F   0  0  0  0  0  0  0  0  0  0  0  0
    3.3660    1.2900    0.0000 F   0  0  0  0  0  0  0  0  0  0  0  0
    3.7320    2.9239    0.0000 O   0  0  0  0  0  0  0  0  0  0  0  0
    4.5981    1.4239    0.0000 N   0  0  0  0  0  0  0  0  0  0  0  0
    6.3301   -1.5761    0.0000 N   0  0  0  0  0  0  0  0  0  0  0  0
    6.8301   -4.1149    0.0000 N   0  0  0  0  0  0  0  0  0  0  0  0
    4.5981   -1.5761    0.0000 N   0  0  0  0  0  0  0  0  0  0  0  0
    5.8301   -4.1149    0.0000 N   0  0  0  0  0  0  0  0  0  0  0  0
    4.5981    4.4239    0.0000 N   0  0  0  0  0  0  0  0  0  0  0  0
    4.5981    0.4239    0.0000 C   0  0  0  0  0  0  0  0  0  0  0  0
    6.3301   -2.5761    0.0000 C   0  0  0  0  0  0  0  0  0  0  0  0
    3.7320   -0.0761    0.0000 C   0  0  0  0  0  0  0  0  0  0  0  0
    5.4641   -1.0761    0.0000 C   0  0  0  0  0  0  0  0  0  0  0  0
    5.4641   -0.0761    0.0000 C   0  0  0  0  0  0  0  0  0  0  0  0
    5.4641    1.9239    0.0000 C   0  0  0  0  0  0  0  0  0  0  0  0
    5.5211   -3.1639    0.0000 C   0  0  0  0  0  0  0  0  0  0  0  0
    7.1391   -3.1639    0.0000 C   0  0  0  0  0  0  0  0  0  0  0  0
    5.4641    2.9239    0.0000 C   0  0  0  0  0  0  0  0  0  0  0  0
    3.7320   -1.0761    0.0000 C   0  0  0  0  0  0  0  0  0  0  0  0
    2.8660    0.4239    0.0000 C   0  0  0  0  0  0  0  0  0  0  0  0
    6.3301    1.4239    0.0000 C   0  0  0  0  0  0  0  0  0  0  0  0
    4.5700   -2.8548    0.0000 C   0  0  0  0  0  0  0  0  0  0  0  0
    6.3301    3.4239    0.0000 C   0  0  0  0  0  0  0  0  0  0  0  0
    7.1962    1.9239    0.0000 C   0  0  0  0  0  0  0  0  0  0  0  0
    7.4179   -4.9239    0.0000 C   0  0  0  0  0  0  0  0  0  0  0  0
    4.5981    3.4239    0.0000 C   0  0  0  0  0  0  0  0  0  0  0  0
    7.1962    2.9239    0.0000 C   0  0  0  0  0  0  0  0  0  0  0  0
    5.4641    4.9239    0.0000 C   0  0  0  0  0  0  0  0  0  0  0  0
    6.0010    0.2339    0.0000 H   0  0  0  0  0  0  0  0  0  0  0  0
    4.0611    1.7339    0.0000 H   0  0  0  0  0  0  0  0  0  0  0  0
    6.8671   -1.2661    0.0000 H   0  0  0  0  0  0  0  0  0  0  0  0
    7.7288   -2.9723    0.0000 H   0  0  0  0  0  0  0  0  0  0  0  0
    3.1951   -1.3861    0.0000 H   0  0  0  0  0  0  0  0  0  0  0  0
    6.3301    0.8039    0.0000 H   0  0  0  0  0  0  0  0  0  0  0  0
    4.7616   -2.2652    0.0000 H   0  0  0  0  0  0  0  0  0  0  0  0
    3.9804   -2.6632    0.0000 H   0  0  0  0  0  0  0  0  0  0  0  0
    4.3785   -3.4445    0.0000 H   0  0  0  0  0  0  0  0  0  0  0  0
    6.3301    4.0439    0.0000 H   0  0  0  0  0  0  0  0  0  0  0  0
    7.7331    1.6139    0.0000 H   0  0  0  0  0  0  0  0  0  0  0  0
    6.9163   -5.2884    0.0000 H   0  0  0  0  0  0  0  0  0  0  0  0
    7.7823   -5.4255    0.0000 H   0  0  0  0  0  0  0  0  0  0  0  0
    7.9195   -4.5595    0.0000 H   0  0  0  0  0  0  0  0  0  0  0  0
    7.7331    3.2339    0.0000 H   0  0  0  0  0  0  0  0  0  0  0  0
    4.0611    4.7339    0.0000 H   0  0  0  0  0  0  0  0  0  0  0  0
    5.7741    4.3870    0.0000 H   0  0  0  0  0  0  0  0  0  0  0  0
    6.0010    5.2339    0.0000 H   0  0  0  0  0  0  0  0  0  0  0  0
    5.1541    5.4609    0.0000 H   0  0  0  0  0  0  0  0  0  0  0  0
  1 21  1  0  0  0  0
  2 21  1  0  0  0  0
  3 21  1  0  0  0  0
  4 27  2  0  0  0  0
  5 11  1  0  0  0  0
  5 16  1  0  0  0  0
  5 31  1  0  0  0  0
  6 12  1  0  0  0  0
  6 14  1  0  0  0  0
  6 32  1  0  0  0  0
  7  9  1  0  0  0  0
  7 18  1  0  0  0  0
  7 26  1  0  0  0  0
  8 14  2  0  0  0  0
  8 20  1  0  0  0  0
  9 17  2  0  0  0  0
 10 27  1  0  0  0  0
 10 29  1  0  0  0  0
 10 45  1  0  0  0  0
 11 13  1  0  0  0  0
 11 15  2  0  0  0  0
 12 17  1  0  0  0  0
 12 18  2  0  0  0  0
 13 20  2  0  0  0  0
 13 21  1  0  0  0  0
 14 15  1  0  0  0  0
 15 30  1  0  0  0  0
 16 19  1  0  0  0  0
 16 22  2  0  0  0  0
 17 23  1  0  0  0  0
 18 33  1  0  0  0  0
 19 24  2  0  0  0  0
 19 27  1  0  0  0  0
 20 34  1  0  0  0  0
 22 25  1  0  0  0  0
 22 35  1  0  0  0  0
 23 36  1  0  0  0  0
 23 37  1  0  0  0  0
 23 38  1  0  0  0  0
 24 28  1  0  0  0  0
 24 39  1  0  0  0  0
 25 28  2  0  0  0  0
 25 40  1  0  0  0  0
 26 41  1  0  0  0  0
 26 42  1  0  0  0  0
 26 43  1  0  0  0  0
 28 44  1  0  0  0  0
 29 46  1  0  0  0  0
 29 47  1  0  0  0  0
 29 48  1  0  0  0  0
M  END
> <PUBCHEM_COMPOUND_CID>
44609510

> <PUBCHEM_COMPOUND_CANONICALIZED>
1

> <PUBCHEM_CACTVS_COMPLEXITY>
563

> <PUBCHEM_CACTVS_HBOND_ACCEPTOR>
8

> <PUBCHEM_CACTVS_HBOND_DONOR>
3

> <PUBCHEM_CACTVS_ROTATABLE_BOND>
5

> <PUBCHEM_CACTVS_SUBSKEYS>
AAADceB7oYAAAAAAAAAAAAAAAAAAAWAAAAA8QAAAAAAAAAAB8AAAHwAYAAAADAjBnhQ/8JLIEACqAzd3dACShCk1kiAZ2KE4dNiIYPrA3dGUpYhomgLIyecYiACOAAAAAAACAAAAAAAAAAQAAAAAAAAAAA==

> <PUBCHEM_IUPAC_OPENEYE_NAME>
2-[[2-[(1,3-dimethylpyrazol-4-yl)amino]-5-(trifluoromethyl)-4-pyridyl]amino]-N-methyl-benzamide

> <PUBCHEM_IUPAC_CAS_NAME>
2-[[2-[(1,3-dimethyl-4-pyrazolyl)amino]-5-(trifluoromethyl)-4-pyridinyl]amino]-N-methylbenzamide

> <PUBCHEM_IUPAC_NAME>
2-[[2-[(1,3-dimethylpyrazol-4-yl)amino]-5-(trifluoromethyl)pyridin-4-yl]amino]-N-methylbenzamide

> <PUBCHEM_IUPAC_SYSTEMATIC_NAME>
2-[[2-[(1,3-dimethylpyrazol-4-yl)amino]-5-(trifluoromethyl)pyridin-4-yl]amino]-N-methyl-benzamide

> <PUBCHEM_IUPAC_TRADITIONAL_NAME>
2-[[2-[(1,3-dimethylpyrazol-4-yl)amino]-5-(trifluoromethyl)-4-pyridyl]amino]-N-methyl-benzamide

> <PUBCHEM_IUPAC_INCHI>
InChI=1S/C19H19F3N6O/c1-11-16(10-28(3)27-11)26-17-8-15(13(9-24-17)19(20,21)22)25-14-7-5-4-6-12(14)18(29)23-2/h4-10H,1-3H3,(H,23,29)(H2,24,25,26)

> <PUBCHEM_IUPAC_INCHIKEY>
XXQNJSPSOWJIOZ-UHFFFAOYSA-N

> <PUBCHEM_XLOGP3_AA>
3.7

> <PUBCHEM_EXACT_MASS>
404.157244

> <PUBCHEM_MOLECULAR_FORMULA>
C19H19F3N6O

> <PUBCHEM_MOLECULAR_WEIGHT>
404.38897

> <PUBCHEM_OPENEYE_CAN_SMILES>
CC1=NN(C=C1NC2=NC=C(C(=C2)NC3=CC=CC=C3C(=O)NC)C(F)(F)F)C

> <PUBCHEM_OPENEYE_ISO_SMILES>
CC1=NN(C=C1NC2=NC=C(C(=C2)NC3=CC=CC=C3C(=O)NC)C(F)(F)F)C

> <PUBCHEM_CACTVS_TPSA>
83.9

> <PUBCHEM_MONOISOTOPIC_WEIGHT>
404.157244

> <PUBCHEM_TOTAL_CHARGE>
0

> <PUBCHEM_HEAVY_ATOM_COUNT>
29

> <PUBCHEM_ATOM_DEF_STEREO_COUNT>
0

> <PUBCHEM_ATOM_UDEF_STEREO_COUNT>
0

> <PUBCHEM_BOND_DEF_STEREO_COUNT>
0

> <PUBCHEM_BOND_UDEF_STEREO_COUNT>
0

> <PUBCHEM_ISOTOPIC_ATOM_COUNT>
0

> <PUBCHEM_COMPONENT_COUNT>
1

> <PUBCHEM_CACTVS_TAUTO_COUNT>
38

> <PUBCHEM_COORDINATE_TYPE>
1
5
255

> <PUBCHEM_BONDANNOTATIONS>
11  13  8
11  15  8
12  17  8
12  18  8
13  20  8
14  15  8
16  19  8
16  22  8
19  24  8
22  25  8
24  28  8
25  28  8
7  18  8
7  9  8
8  14  8
8  20  8
9  17  8

$$$$
46244173
  -OEChem-11121519512D

 50 54  0     0  0  0  0  0  0999 V2000
    7.1962    2.6970    0.0000 S   0  0  0  0  0  0  0  0  0  0  0  0
    8.1962    2.6970    0.0000 O   0  0  0  0  0  0  0  0  0  0  0  0
    6.1962    2.6970    0.0000 O   0  0  0  0  0  0  0  0  0  0  0  0
    2.0000    2.6970    0.0000 O   0  0  0  0  0  0  0  0  0  0  0  0
    6.3301    0.1970    0.0000 N   0  0  0  0  0  0  0  0  0  0  0  0
    3.7320    1.6970    0.0000 N   0  0  0  0  0  0  0  0  0  0  0  0
    4.5981    0.1970    0.0000 N   0  0  0  0  0  0  0  0  0  0  0  0
    7.2764   -3.1077    0.0000 N   0  0  0  0  0  0  0  0  0  0  0  0
    7.1962    1.6970    0.0000 C   0  0  0  0  0  0  0  0  0  0  0  0
    8.1962    1.6970    0.0000 C   0  0  0  0  0  0  0  0  0  0  0  0
    7.6962    0.8310    0.0000 C   0  0  0  0  0  0  0  0  0  0  0  0
    6.3301    1.1970    0.0000 C   0  0  0  0  0  0  0  0  0  0  0  0
    7.1962    3.6970    0.0000 C   0  0  0  0  0  0  0  0  0  0  0  0
    5.4641    1.6970    0.0000 C   0  0  0  0  0  0  0  0  0  0  0  0
    4.5981    1.1970    0.0000 C   0  0  0  0  0  0  0  0  0  0  0  0
    5.4641   -0.3030    0.0000 C   0  0  0  0  0  0  0  0  0  0  0  0
    2.8660    1.1970    0.0000 C   0  0  0  0  0  0  0  0  0  0  0  0
    3.7320    2.6970    0.0000 C   0  0  0  0  0  0  0  0  0  0  0  0
    5.4641   -1.3030    0.0000 C   0  0  0  0  0  0  0  0  0  0  0  0
    2.0000    1.6970    0.0000 C   0  0  0  0  0  0  0  0  0  0  0  0
    2.8660    3.1970    0.0000 C   0  0  0  0  0  0  0  0  0  0  0  0
    6.3301   -1.8030    0.0000 C   0  0  0  0  0  0  0  0  0  0  0  0
    4.5981   -1.8030    0.0000 C   0  0  0  0  0  0  0  0  0  0  0  0
    6.3301   -2.8030    0.0000 C   0  0  0  0  0  0  0  0  0  0  0  0
    7.2764   -1.4982    0.0000 C   0  0  0  0  0  0  0  0  0  0  0  0
    4.5981   -2.8030    0.0000 C   0  0  0  0  0  0  0  0  0  0  0  0
    5.4641   -3.3030    0.0000 C   0  0  0  0  0  0  0  0  0  0  0  0
    7.8600   -2.3030    0.0000 C   0  0  0  0  0  0  0  0  0  0  0  0
    8.7788    1.4850    0.0000 H   0  0  0  0  0  0  0  0  0  0  0  0
    8.3038    2.3076    0.0000 H   0  0  0  0  0  0  0  0  0  0  0  0
    7.2212    0.4325    0.0000 H   0  0  0  0  0  0  0  0  0  0  0  0
    8.1711    0.4325    0.0000 H   0  0  0  0  0  0  0  0  0  0  0  0
    7.8162    3.6970    0.0000 H   0  0  0  0  0  0  0  0  0  0  0  0
    7.1962    4.3170    0.0000 H   0  0  0  0  0  0  0  0  0  0  0  0
    6.5762    3.6970    0.0000 H   0  0  0  0  0  0  0  0  0  0  0  0
    5.4641    2.3170    0.0000 H   0  0  0  0  0  0  0  0  0  0  0  0
    4.3426    2.5894    0.0000 H   0  0  0  0  0  0  0  0  0  0  0  0
    3.9441    3.2796    0.0000 H   0  0  0  0  0  0  0  0  0  0  0  0
    2.4675    0.7221    0.0000 H   0  0  0  0  0  0  0  0  0  0  0  0
    3.2646    0.7221    0.0000 H   0  0  0  0  0  0  0  0  0  0  0  0
    3.2646    3.6720    0.0000 H   0  0  0  0  0  0  0  0  0  0  0  0
    2.4675    3.6720    0.0000 H   0  0  0  0  0  0  0  0  0  0  0  0
    1.3894    1.8047    0.0000 H   0  0  0  0  0  0  0  0  0  0  0  0
    1.7880    1.1144    0.0000 H   0  0  0  0  0  0  0  0  0  0  0  0
    4.0611   -1.4930    0.0000 H   0  0  0  0  0  0  0  0  0  0  0  0
    7.4690   -0.9089    0.0000 H   0  0  0  0  0  0  0  0  0  0  0  0
    4.0611   -3.1130    0.0000 H   0  0  0  0  0  0  0  0  0  0  0  0
    5.4641   -3.9230    0.0000 H   0  0  0  0  0  0  0  0  0  0  0  0
    7.4690   -3.6970    0.0000 H   0  0  0  0  0  0  0  0  0  0  0  0
    8.4800   -2.3030    0.0000 H   0  0  0  0  0  0  0  0  0  0  0  0
  1  2  2  0  0  0  0
  1  3  2  0  0  0  0
  1  9  1  0  0  0  0
  1 13  1  0  0  0  0
  4 20  1  0  0  0  0
  4 21  1  0  0  0  0
  5 12  1  0  0  0  0
  5 16  2  0  0  0  0
  6 15  1  0  0  0  0
  6 17  1  0  0  0  0
  6 18  1  0  0  0  0
  7 15  2  0  0  0  0
  7 16  1  0  0  0  0
  8 24  1  0  0  0  0
  8 28  1  0  0  0  0
  8 49  1  0  0  0  0
  9 10  1  0  0  0  0
  9 11  1  0  0  0  0
  9 12  1  0  0  0  0
 10 11  1  0  0  0  0
 10 29  1  0  0  0  0
 10 30  1  0  0  0  0
 11 31  1  0  0  0  0
 11 32  1  0  0  0  0
 12 14  2  0  0  0  0
 13 33  1  0  0  0  0
 13 34  1  0  0  0  0
 13 35  1  0  0  0  0
 14 15  1  0  0  0  0
 14 36  1  0  0  0  0
 16 19  1  0  0  0  0
 17 20  1  0  0  0  0
 17 39  1  0  0  0  0
 17 40  1  0  0  0  0
 18 21  1  0  0  0  0
 18 37  1  0  0  0  0
 18 38  1  0  0  0  0
 19 22  2  0  0  0  0
 19 23  1  0  0  0  0
 20 43  1  0  0  0  0
 20 44  1  0  0  0  0
 21 41  1  0  0  0  0
 21 42  1  0  0  0  0
 22 24  1  0  0  0  0
 22 25  1  0  0  0  0
 23 26  2  0  0  0  0
 23 45  1  0  0  0  0
 24 27  2  0  0  0  0
 25 28  2  0  0  0  0
 25 46  1  0  0  0  0
 26 27  1  0  0  0  0
 26 47  1  0  0  0  0
 27 48  1  0  0  0  0
 28 50  1  0  0  0  0
M  END
> <PUBCHEM_COMPOUND_CID>
46244173

> <PUBCHEM_COMPOUND_CANONICALIZED>
1

> <PUBCHEM_CACTVS_COMPLEXITY>
671

> <PUBCHEM_CACTVS_HBOND_ACCEPTOR>
6

> <PUBCHEM_CACTVS_HBOND_DONOR>
1

> <PUBCHEM_CACTVS_ROTATABLE_BOND>
4

> <PUBCHEM_CACTVS_SUBSKEYS>
AAADceB7sABAAAAAAAAAAAAAGAAAAWAAAAA8WIAAAAAAAFgB/AAAHgQQAAAADAjh3wa/8PfJlAqgAzZnZHDCgCkxArAJ2aA4ZJiKKOLg2dGHJAhokALYyCcQgIAOgAAAQAASAAAAAACAACQAAAAAAAAAAA==

> <PUBCHEM_IUPAC_OPENEYE_NAME>
4-[2-(1H-indol-4-yl)-6-(1-methylsulfonylcyclopropyl)pyrimidin-4-yl]morpholine

> <PUBCHEM_IUPAC_CAS_NAME>
4-[2-(1H-indol-4-yl)-6-(1-methylsulfonylcyclopropyl)-4-pyrimidinyl]morpholine

> <PUBCHEM_IUPAC_NAME>
4-[2-(1H-indol-4-yl)-6-(1-methylsulfonylcyclopropyl)pyrimidin-4-yl]morpholine

> <PUBCHEM_IUPAC_SYSTEMATIC_NAME>
4-[2-(1H-indol-4-yl)-6-(1-methylsulfonylcyclopropyl)pyrimidin-4-yl]morpholine

> <PUBCHEM_IUPAC_TRADITIONAL_NAME>
4-[2-(1H-indol-4-yl)-6-(1-mesylcyclopropyl)pyrimidin-4-yl]morpholine

> <PUBCHEM_IUPAC_INCHI>
InChI=1S/C20H22N4O3S/c1-28(25,26)20(6-7-20)17-13-18(24-9-11-27-12-10-24)23-19(22-17)15-3-2-4-16-14(15)5-8-21-16/h2-5,8,13,21H,6-7,9-12H2,1H3

> <PUBCHEM_IUPAC_INCHIKEY>
UUEAFRKZMCDHFV-UHFFFAOYSA-N

> <PUBCHEM_XLOGP3_AA>
1.6

> <PUBCHEM_EXACT_MASS>
398.141262

> <PUBCHEM_MOLECULAR_FORMULA>
C20H22N4O3S

> <PUBCHEM_MOLECULAR_WEIGHT>
398.47868

> <PUBCHEM_OPENEYE_CAN_SMILES>
CS(=O)(=O)C1(CC1)C2=CC(=NC(=N2)C3=C4C=CNC4=CC=C3)N5CCOCC5

> <PUBCHEM_OPENEYE_ISO_SMILES>
CS(=O)(=O)C1(CC1)C2=CC(=NC(=N2)C3=C4C=CNC4=CC=C3)N5CCOCC5

> <PUBCHEM_CACTVS_TPSA>
96.6

> <PUBCHEM_MONOISOTOPIC_WEIGHT>
398.141262

> <PUBCHEM_TOTAL_CHARGE>
0

> <PUBCHEM_HEAVY_ATOM_COUNT>
28

> <PUBCHEM_ATOM_DEF_STEREO_COUNT>
0

> <PUBCHEM_ATOM_UDEF_STEREO_COUNT>
0

> <PUBCHEM_BOND_DEF_STEREO_COUNT>
0

> <PUBCHEM_BOND_UDEF_STEREO_COUNT>
0

> <PUBCHEM_ISOTOPIC_ATOM_COUNT>
0

> <PUBCHEM_COMPONENT_COUNT>
1

> <PUBCHEM_CACTVS_TAUTO_COUNT>
3

> <PUBCHEM_COORDINATE_TYPE>
1
5
255

> <PUBCHEM_BONDANNOTATIONS>
12  14  8
14  15  8
19  22  8
19  23  8
22  24  8
22  25  8
23  26  8
24  27  8
25  28  8
26  27  8
5  12  8
5  16  8
7  15  8
7  16  8
8  24  8
8  28  8

$$$$
46244454
  -OEChem-11121519512D

 53 57  0     1  0  0  0  0  0999 V2000
    7.1962    2.6970    0.0000 S   0  0  0  0  0  0  0  0  0  0  0  0
    8.1962    2.6970    0.0000 O   0  0  0  0  0  0  0  0  0  0  0  0
    6.1962    2.6970    0.0000 O   0  0  0  0  0  0  0  0  0  0  0  0
    2.0000    2.6970    0.0000 O   0  0  0  0  0  0  0  0  0  0  0  0
    6.3301    0.1970    0.0000 N   0  0  0  0  0  0  0  0  0  0  0  0
    3.7320    1.6970    0.0000 N   0  0  0  0  0  0  0  0  0  0  0  0
    4.5981    0.1970    0.0000 N   0  0  0  0  0  0  0  0  0  0  0  0
    7.2764   -3.1077    0.0000 N   0  0  0  0  0  0  0  0  0  0  0  0
    7.1962    1.6970    0.0000 C   0  0  0  0  0  0  0  0  0  0  0  0
    8.1962    1.6970    0.0000 C   0  0  0  0  0  0  0  0  0  0  0  0
    7.6962    0.8310    0.0000 C   0  0  0  0  0  0  0  0  0  0  0  0
    6.3301    1.1970    0.0000 C   0  0  0  0  0  0  0  0  0  0  0  0
    7.1962    3.6970    0.0000 C   0  0  0  0  0  0  0  0  0  0  0  0
    5.4641    1.6970    0.0000 C   0  0  0  0  0  0  0  0  0  0  0  0
    4.5981    1.1970    0.0000 C   0  0  0  0  0  0  0  0  0  0  0  0
    5.4641   -0.3030    0.0000 C   0  0  0  0  0  0  0  0  0  0  0  0
    3.7320    2.6970    0.0000 C   0  0  1  0  0  0  0  0  0  0  0  0
    2.8660    1.1970    0.0000 C   0  0  0  0  0  0  0  0  0  0  0  0
    2.8660    3.1970    0.0000 C   0  0  0  0  0  0  0  0  0  0  0  0
    5.4641   -1.3030    0.0000 C   0  0  0  0  0  0  0  0  0  0  0  0
    2.0000    1.6970    0.0000 C   0  0  0  0  0  0  0  0  0  0  0  0
    4.5981    3.1970    0.0000 C   0  0  0  0  0  0  0  0  0  0  0  0
    6.3301   -1.8030    0.0000 C   0  0  0  0  0  0  0  0  0  0  0  0
    4.5981   -1.8030    0.0000 C   0  0  0  0  0  0  0  0  0  0  0  0
    6.3301   -2.8030    0.0000 C   0  0  0  0  0  0  0  0  0  0  0  0
    7.2764   -1.4982    0.0000 C   0  0  0  0  0  0  0  0  0  0  0  0
    4.5981   -2.8030    0.0000 C   0  0  0  0  0  0  0  0  0  0  0  0
    5.4641   -3.3030    0.0000 C   0  0  0  0  0  0  0  0  0  0  0  0
    7.8600   -2.3030    0.0000 C   0  0  0  0  0  0  0  0  0  0  0  0
    7.2212    0.4325    0.0000 H   0  0  0  0  0  0  0  0  0  0  0  0
    8.1711    0.4325    0.0000 H   0  0  0  0  0  0  0  0  0  0  0  0
    8.7788    1.4850    0.0000 H   0  0  0  0  0  0  0  0  0  0  0  0
    8.3038    2.3076    0.0000 H   0  0  0  0  0  0  0  0  0  0  0  0
    7.8162    3.6970    0.0000 H   0  0  0  0  0  0  0  0  0  0  0  0
    7.1962    4.3170    0.0000 H   0  0  0  0  0  0  0  0  0  0  0  0
    6.5762    3.6970    0.0000 H   0  0  0  0  0  0  0  0  0  0  0  0
    5.4641    2.3170    0.0000 H   0  0  0  0  0  0  0  0  0  0  0  0
    4.2690    2.3870    0.0000 H   0  0  0  0  0  0  0  0  0  0  0  0
    2.4675    0.7221    0.0000 H   0  0  0  0  0  0  0  0  0  0  0  0
    3.2646    0.7221    0.0000 H   0  0  0  0  0  0  0  0  0  0  0  0
    3.2646    3.6720    0.0000 H   0  0  0  0  0  0  0  0  0  0  0  0
    2.4675    3.6720    0.0000 H   0  0  0  0  0  0  0  0  0  0  0  0
    1.3894    1.8047    0.0000 H   0  0  0  0  0  0  0  0  0  0  0  0
    1.7880    1.1144    0.0000 H   0  0  0  0  0  0  0  0  0  0  0  0
    4.9081    2.6601    0.0000 H   0  0  0  0  0  0  0  0  0  0  0  0
    5.1350    3.5070    0.0000 H   0  0  0  0  0  0  0  0  0  0  0  0
    4.2881    3.7340    0.0000 H   0  0  0  0  0  0  0  0  0  0  0  0
    4.0611   -1.4930    0.0000 H   0  0  0  0  0  0  0  0  0  0  0  0
    7.4690   -0.9089    0.0000 H   0  0  0  0  0  0  0  0  0  0  0  0
    4.0611   -3.1130    0.0000 H   0  0  0  0  0  0  0  0  0  0  0  0
    5.4641   -3.9230    0.0000 H   0  0  0  0  0  0  0  0  0  0  0  0
    7.4690   -3.6970    0.0000 H   0  0  0  0  0  0  0  0  0  0  0  0
    8.4800   -2.3030    0.0000 H   0  0  0  0  0  0  0  0  0  0  0  0
  1  2  2  0  0  0  0
  1  3  2  0  0  0  0
  1  9  1  0  0  0  0
  1 13  1  0  0  0  0
  4 19  1  0  0  0  0
  4 21  1  0  0  0  0
  5 12  1  0  0  0  0
  5 16  2  0  0  0  0
  6 15  1  0  0  0  0
  6 17  1  0  0  0  0
  6 18  1  0  0  0  0
  7 15  2  0  0  0  0
  7 16  1  0  0  0  0
  8 25  1  0  0  0  0
  8 29  1  0  0  0  0
  8 52  1  0  0  0  0
  9 10  1  0  0  0  0
  9 11  1  0  0  0  0
  9 12  1  0  0  0  0
 10 11  1  0  0  0  0
 10 32  1  0  0  0  0
 10 33  1  0  0  0  0
 11 30  1  0  0  0  0
 11 31  1  0  0  0  0
 12 14  2  0  0  0  0
 13 34  1  0  0  0  0
 13 35  1  0  0  0  0
 13 36  1  0  0  0  0
 14 15  1  0  0  0  0
 14 37  1  0  0  0  0
 16 20  1  0  0  0  0
 17 19  1  0  0  0  0
 17 22  1  1  0  0  0
 17 38  1  0  0  0  0
 18 21  1  0  0  0  0
 18 39  1  0  0  0  0
 18 40  1  0  0  0  0
 19 41  1  0  0  0  0
 19 42  1  0  0  0  0
 20 23  2  0  0  0  0
 20 24  1  0  0  0  0
 21 43  1  0  0  0  0
 21 44  1  0  0  0  0
 22 45  1  0  0  0  0
 22 46  1  0  0  0  0
 22 47  1  0  0  0  0
 23 25  1  0  0  0  0
 23 26  1  0  0  0  0
 24 27  2  0  0  0  0
 24 48  1  0  0  0  0
 25 28  2  0  0  0  0
 26 29  2  0  0  0  0
 26 49  1  0  0  0  0
 27 28  1  0  0  0  0
 27 50  1  0  0  0  0
 28 51  1  0  0  0  0
 29 53  1  0  0  0  0
M  END
> <PUBCHEM_COMPOUND_CID>
46244454

> <PUBCHEM_COMPOUND_CANONICALIZED>
1

> <PUBCHEM_CACTVS_COMPLEXITY>
707

> <PUBCHEM_CACTVS_HBOND_ACCEPTOR>
6

> <PUBCHEM_CACTVS_HBOND_DONOR>
1

> <PUBCHEM_CACTVS_ROTATABLE_BOND>
4

> <PUBCHEM_CACTVS_SUBSKEYS>
AAADceB7sABAAAAAAAAAAAAAGAAAAWAAAAA8WIAAAAAAAFgB/AAAHgQQAAAADCjh3wa/8PfJlAqgAzZnZHDCgCkxArAJ2aA4ZJiKKOLg2dGHJAhokALYyCcQgIAOgAAAQAASAAAAAACAACQAAAAAAAAAAA==

> <PUBCHEM_IUPAC_OPENEYE_NAME>
(3R)-4-[2-(1H-indol-4-yl)-6-(1-methylsulfonylcyclopropyl)pyrimidin-4-yl]-3-methyl-morpholine

> <PUBCHEM_IUPAC_CAS_NAME>
(3R)-4-[2-(1H-indol-4-yl)-6-(1-methylsulfonylcyclopropyl)-4-pyrimidinyl]-3-methylmorpholine

> <PUBCHEM_IUPAC_NAME>
(3R)-4-[2-(1H-indol-4-yl)-6-(1-methylsulfonylcyclopropyl)pyrimidin-4-yl]-3-methylmorpholine

> <PUBCHEM_IUPAC_SYSTEMATIC_NAME>
(3R)-4-[2-(1H-indol-4-yl)-6-(1-methylsulfonylcyclopropyl)pyrimidin-4-yl]-3-methyl-morpholine

> <PUBCHEM_IUPAC_TRADITIONAL_NAME>
(3R)-4-[2-(1H-indol-4-yl)-6-(1-mesylcyclopropyl)pyrimidin-4-yl]-3-methyl-morpholine

> <PUBCHEM_IUPAC_INCHI>
InChI=1S/C21H24N4O3S/c1-14-13-28-11-10-25(14)19-12-18(21(7-8-21)29(2,26)27)23-20(24-19)16-4-3-5-17-15(16)6-9-22-17/h3-6,9,12,14,22H,7-8,10-11,13H2,1-2H3/t14-/m1/s1

> <PUBCHEM_IUPAC_INCHIKEY>
SCGCBAAYLFTIJU-CQSZACIVSA-N

> <PUBCHEM_XLOGP3_AA>
2.1

> <PUBCHEM_EXACT_MASS>
412.156912

> <PUBCHEM_MOLECULAR_FORMULA>
C21H24N4O3S

> <PUBCHEM_MOLECULAR_WEIGHT>
412.50526

> <PUBCHEM_OPENEYE_CAN_SMILES>
CC1COCCN1C2=NC(=NC(=C2)C3(CC3)S(=O)(=O)C)C4=C5C=CNC5=CC=C4

> <PUBCHEM_OPENEYE_ISO_SMILES>
C[C@@H]1COCCN1C2=NC(=NC(=C2)C3(CC3)S(=O)(=O)C)C4=C5C=CNC5=CC=C4

> <PUBCHEM_CACTVS_TPSA>
96.6

> <PUBCHEM_MONOISOTOPIC_WEIGHT>
412.156912

> <PUBCHEM_TOTAL_CHARGE>
0

> <PUBCHEM_HEAVY_ATOM_COUNT>
29

> <PUBCHEM_ATOM_DEF_STEREO_COUNT>
1

> <PUBCHEM_ATOM_UDEF_STEREO_COUNT>
0

> <PUBCHEM_BOND_DEF_STEREO_COUNT>
0

> <PUBCHEM_BOND_UDEF_STEREO_COUNT>
0

> <PUBCHEM_ISOTOPIC_ATOM_COUNT>
0

> <PUBCHEM_COMPONENT_COUNT>
1

> <PUBCHEM_CACTVS_TAUTO_COUNT>
3

> <PUBCHEM_COORDINATE_TYPE>
1
5
255

> <PUBCHEM_BONDANNOTATIONS>
12  14  8
14  15  8
17  22  5
20  23  8
20  24  8
23  25  8
23  26  8
24  27  8
25  28  8
26  29  8
27  28  8
5  12  8
5  16  8
7  15  8
7  16  8
8  25  8
8  29  8

$$$$
51039095
  -OEChem-11121519512D

 67 70  0     1  0  0  0  0  0999 V2000
    4.5981    0.6978    0.0000 O   0  0  0  0  0  0  0  0  0  0  0  0
    6.7117   -4.9726    0.0000 O   0  0  0  0  0  0  0  0  0  0  0  0
    3.9092   -7.0088    0.0000 O   0  0  0  0  0  0  0  0  0  0  0  0
    3.7320    5.1978    0.0000 N   0  0  0  0  0  0  0  0  0  0  0  0
    3.7320    7.1978    0.0000 N   0  0  0  0  0  0  0  0  0  0  0  0
    2.8660    0.6978    0.0000 N   0  0  0  0  0  0  0  0  0  0  0  0
    2.3660   -1.8411    0.0000 N   0  0  0  0  0  0  0  0  0  0  0  0
    2.0570   -0.8900    0.0000 N   0  0  0  0  0  0  0  0  0  0  0  0
    4.5981    6.6978    0.0000 C   0  0  1  0  0  0  0  0  0  0  0  0
    2.8660    6.6978    0.0000 C   0  0  2  0  0  0  0  0  0  0  0  0
    2.8660    5.6978    0.0000 C   0  0  0  0  0  0  0  0  0  0  0  0
    4.5981    5.6978    0.0000 C   0  0  0  0  0  0  0  0  0  0  0  0
    2.0000    7.1978    0.0000 C   0  0  0  0  0  0  0  0  0  0  0  0
    5.4641    7.1978    0.0000 C   0  0  0  0  0  0  0  0  0  0  0  0
    3.7320    4.1978    0.0000 C   0  0  0  0  0  0  0  0  0  0  0  0
    2.8660    3.6978    0.0000 C   0  0  0  0  0  0  0  0  0  0  0  0
    4.5981    3.6978    0.0000 C   0  0  0  0  0  0  0  0  0  0  0  0
    2.8660    2.6978    0.0000 C   0  0  0  0  0  0  0  0  0  0  0  0
    4.5981    2.6978    0.0000 C   0  0  0  0  0  0  0  0  0  0  0  0
    3.7320    2.1978    0.0000 C   0  0  0  0  0  0  0  0  0  0  0  0
    3.7320    1.1978    0.0000 C   0  0  0  0  0  0  0  0  0  0  0  0
    3.9538   -2.6501    0.0000 C   0  0  0  0  0  0  0  0  0  0  0  0
    3.5471   -3.5636    0.0000 C   0  0  0  0  0  0  0  0  0  0  0  0
    3.3660   -1.8411    0.0000 C   0  0  0  0  0  0  0  0  0  0  0  0
    2.8660   -0.3022    0.0000 C   0  0  0  0  0  0  0  0  0  0  0  0
    4.1349   -4.3726    0.0000 C   0  0  0  0  0  0  0  0  0  0  0  0
    3.6750   -0.8900    0.0000 C   0  0  0  0  0  0  0  0  0  0  0  0
    3.7281   -5.2862    0.0000 C   0  0  0  0  0  0  0  0  0  0  0  0
    5.1294   -4.2681    0.0000 C   0  0  0  0  0  0  0  0  0  0  0  0
    5.7172   -5.0771    0.0000 C   0  0  0  0  0  0  0  0  0  0  0  0
    4.3159   -6.0952    0.0000 C   0  0  0  0  0  0  0  0  0  0  0  0
    5.3104   -5.9907    0.0000 C   0  0  0  0  0  0  0  0  0  0  0  0
    7.2995   -5.7816    0.0000 C   0  0  0  0  0  0  0  0  0  0  0  0
    4.4970   -7.8178    0.0000 C   0  0  0  0  0  0  0  0  0  0  0  0
    4.5981    7.3178    0.0000 H   0  0  0  0  0  0  0  0  0  0  0  0
    2.8660    7.3178    0.0000 H   0  0  0  0  0  0  0  0  0  0  0  0
    4.8101    5.1152    0.0000 H   0  0  0  0  0  0  0  0  0  0  0  0
    5.2087    5.8054    0.0000 H   0  0  0  0  0  0  0  0  0  0  0  0
    2.2554    5.8054    0.0000 H   0  0  0  0  0  0  0  0  0  0  0  0
    2.6540    5.1152    0.0000 H   0  0  0  0  0  0  0  0  0  0  0  0
    3.7320    7.8178    0.0000 H   0  0  0  0  0  0  0  0  0  0  0  0
    2.3100    7.7347    0.0000 H   0  0  0  0  0  0  0  0  0  0  0  0
    1.4631    7.5078    0.0000 H   0  0  0  0  0  0  0  0  0  0  0  0
    1.6900    6.6608    0.0000 H   0  0  0  0  0  0  0  0  0  0  0  0
    5.7741    6.6608    0.0000 H   0  0  0  0  0  0  0  0  0  0  0  0
    6.0010    7.5078    0.0000 H   0  0  0  0  0  0  0  0  0  0  0  0
    5.1541    7.7347    0.0000 H   0  0  0  0  0  0  0  0  0  0  0  0
    2.3291    4.0078    0.0000 H   0  0  0  0  0  0  0  0  0  0  0  0
    5.1350    4.0078    0.0000 H   0  0  0  0  0  0  0  0  0  0  0  0
    2.3291    2.3878    0.0000 H   0  0  0  0  0  0  0  0  0  0  0  0
    5.1350    2.3878    0.0000 H   0  0  0  0  0  0  0  0  0  0  0  0
    4.4678   -2.9968    0.0000 H   0  0  0  0  0  0  0  0  0  0  0  0
    4.3845   -2.2041    0.0000 H   0  0  0  0  0  0  0  0  0  0  0  0
    3.0331   -3.2169    0.0000 H   0  0  0  0  0  0  0  0  0  0  0  0
    3.1164   -4.0096    0.0000 H   0  0  0  0  0  0  0  0  0  0  0  0
    2.3291    1.0078    0.0000 H   0  0  0  0  0  0  0  0  0  0  0  0
    4.2647   -0.6984    0.0000 H   0  0  0  0  0  0  0  0  0  0  0  0
    2.0016   -2.3427    0.0000 H   0  0  0  0  0  0  0  0  0  0  0  0
    3.1115   -5.3510    0.0000 H   0  0  0  0  0  0  0  0  0  0  0  0
    5.3816   -3.7017    0.0000 H   0  0  0  0  0  0  0  0  0  0  0  0
    5.6749   -6.4923    0.0000 H   0  0  0  0  0  0  0  0  0  0  0  0
    6.7979   -6.1460    0.0000 H   0  0  0  0  0  0  0  0  0  0  0  0
    7.6639   -6.2832    0.0000 H   0  0  0  0  0  0  0  0  0  0  0  0
    7.8011   -5.4172    0.0000 H   0  0  0  0  0  0  0  0  0  0  0  0
    3.9954   -8.1822    0.0000 H   0  0  0  0  0  0  0  0  0  0  0  0
    4.8614   -8.3194    0.0000 H   0  0  0  0  0  0  0  0  0  0  0  0
    4.9986   -7.4534    0.0000 H   0  0  0  0  0  0  0  0  0  0  0  0
  1 21  2  0  0  0  0
  2 30  1  0  0  0  0
  2 33  1  0  0  0  0
  3 31  1  0  0  0  0
  3 34  1  0  0  0  0
  4 11  1  0  0  0  0
  4 12  1  0  0  0  0
  4 15  1  0  0  0  0
  5  9  1  0  0  0  0
  5 10  1  0  0  0  0
  5 41  1  0  0  0  0
  6 21  1  0  0  0  0
  6 25  1  0  0  0  0
  6 56  1  0  0  0  0
  7  8  1  0  0  0  0
  7 24  1  0  0  0  0
  7 58  1  0  0  0  0
  8 25  2  0  0  0  0
  9 12  1  0  0  0  0
  9 14  1  6  0  0  0
  9 35  1  0  0  0  0
 10 11  1  0  0  0  0
 10 13  1  6  0  0  0
 10 36  1  0  0  0  0
 11 39  1  0  0  0  0
 11 40  1  0  0  0  0
 12 37  1  0  0  0  0
 12 38  1  0  0  0  0
 13 42  1  0  0  0  0
 13 43  1  0  0  0  0
 13 44  1  0  0  0  0
 14 45  1  0  0  0  0
 14 46  1  0  0  0  0
 14 47  1  0  0  0  0
 15 16  2  0  0  0  0
 15 17  1  0  0  0  0
 16 18  1  0  0  0  0
 16 48  1  0  0  0  0
 17 19  2  0  0  0  0
 17 49  1  0  0  0  0
 18 20  2  0  0  0  0
 18 50  1  0  0  0  0
 19 20  1  0  0  0  0
 19 51  1  0  0  0  0
 20 21  1  0  0  0  0
 22 23  1  0  0  0  0
 22 24  1  0  0  0  0
 22 52  1  0  0  0  0
 22 53  1  0  0  0  0
 23 26  1  0  0  0  0
 23 54  1  0  0  0  0
 23 55  1  0  0  0  0
 24 27  2  0  0  0  0
 25 27  1  0  0  0  0
 26 28  2  0  0  0  0
 26 29  1  0  0  0  0
 27 57  1  0  0  0  0
 28 31  1  0  0  0  0
 28 59  1  0  0  0  0
 29 30  2  0  0  0  0
 29 60  1  0  0  0  0
 30 32  1  0  0  0  0
 31 32  2  0  0  0  0
 32 61  1  0  0  0  0
 33 62  1  0  0  0  0
 33 63  1  0  0  0  0
 33 64  1  0  0  0  0
 34 65  1  0  0  0  0
 34 66  1  0  0  0  0
 34 67  1  0  0  0  0
M  END
> <PUBCHEM_COMPOUND_CID>
51039095

> <PUBCHEM_COMPOUND_CANONICALIZED>
1

> <PUBCHEM_CACTVS_COMPLEXITY>
622

> <PUBCHEM_CACTVS_HBOND_ACCEPTOR>
6

> <PUBCHEM_CACTVS_HBOND_DONOR>
3

> <PUBCHEM_CACTVS_ROTATABLE_BOND>
8

> <PUBCHEM_CACTVS_SUBSKEYS>
AAADcfB7sAAAAAAAAAAAAAAAAAAAAWAAAAA8YIAAAAAAAAAB0AAAHgAYAAAADCzBngYz9pPjBACqAydycACSDAIlIgAduaE+bNiMZzLE/duUtSh13RfI6YeY6fyeCAABCAAAAAAQAAIQAAAAAAAAAAAAAA==

> <PUBCHEM_IUPAC_OPENEYE_NAME>
N-[5-[2-(3,5-dimethoxyphenyl)ethyl]-1H-pyrazol-3-yl]-4-[(3R,5S)-3,5-dimethylpiperazin-1-yl]benzamide

> <PUBCHEM_IUPAC_CAS_NAME>
N-[5-[2-(3,5-dimethoxyphenyl)ethyl]-1H-pyrazol-3-yl]-4-[(3R,5S)-3,5-dimethyl-1-piperazinyl]benzamide

> <PUBCHEM_IUPAC_NAME>
N-[5-[2-(3,5-dimethoxyphenyl)ethyl]-1H-pyrazol-3-yl]-4-[(3R,5S)-3,5-dimethylpiperazin-1-yl]benzamide

> <PUBCHEM_IUPAC_SYSTEMATIC_NAME>
N-[5-[2-(3,5-dimethoxyphenyl)ethyl]-1H-pyrazol-3-yl]-4-[(3R,5S)-3,5-dimethylpiperazin-1-yl]benzamide

> <PUBCHEM_IUPAC_TRADITIONAL_NAME>
N-[5-[2-(3,5-dimethoxyphenyl)ethyl]-1H-pyrazol-3-yl]-4-[(3R,5S)-3,5-dimethylpiperazino]benzamide

> <PUBCHEM_IUPAC_INCHI>
InChI=1S/C26H33N5O3/c1-17-15-31(16-18(2)27-17)22-9-6-20(7-10-22)26(32)28-25-13-21(29-30-25)8-5-19-11-23(33-3)14-24(12-19)34-4/h6-7,9-14,17-18,27H,5,8,15-16H2,1-4H3,(H2,28,29,30,32)/t17-,18+

> <PUBCHEM_IUPAC_INCHIKEY>
VRQMAABPASPXMW-HDICACEKSA-N

> <PUBCHEM_XLOGP3_AA>
3.9

> <PUBCHEM_EXACT_MASS>
463.25834

> <PUBCHEM_MOLECULAR_FORMULA>
C26H33N5O3

> <PUBCHEM_MOLECULAR_WEIGHT>
463.57192

> <PUBCHEM_OPENEYE_CAN_SMILES>
CC1CN(CC(N1)C)C2=CC=C(C=C2)C(=O)NC3=NNC(=C3)CCC4=CC(=CC(=C4)OC)OC

> <PUBCHEM_OPENEYE_ISO_SMILES>
C[C@@H]1CN(C[C@@H](N1)C)C2=CC=C(C=C2)C(=O)NC3=NNC(=C3)CCC4=CC(=CC(=C4)OC)OC

> <PUBCHEM_CACTVS_TPSA>
91.5

> <PUBCHEM_MONOISOTOPIC_WEIGHT>
463.25834

> <PUBCHEM_TOTAL_CHARGE>
0

> <PUBCHEM_HEAVY_ATOM_COUNT>
34

> <PUBCHEM_ATOM_DEF_STEREO_COUNT>
2

> <PUBCHEM_ATOM_UDEF_STEREO_COUNT>
0

> <PUBCHEM_BOND_DEF_STEREO_COUNT>
0

> <PUBCHEM_BOND_UDEF_STEREO_COUNT>
0

> <PUBCHEM_ISOTOPIC_ATOM_COUNT>
0

> <PUBCHEM_COMPONENT_COUNT>
1

> <PUBCHEM_CACTVS_TAUTO_COUNT>
13

> <PUBCHEM_COORDINATE_TYPE>
1
5
255

> <PUBCHEM_BONDANNOTATIONS>
10  13  6
15  16  8
15  17  8
16  18  8
17  19  8
18  20  8
19  20  8
24  27  8
25  27  8
26  28  8
26  29  8
28  31  8
29  30  8
30  32  8
31  32  8
7  24  8
7  8  8
8  25  8
9  14  6

$$$$
52913929
  -OEChem-11121519512D

 58 61  0     1  0  0  0  0  0999 V2000
    6.3301   -3.7673    0.0000 F   0  0  0  0  0  0  0  0  0  0  0  0
    2.8660   -3.7673    0.0000 F   0  0  0  0  0  0  0  0  0  0  0  0
    7.2241    0.6980    0.0000 O   0  0  0  0  0  0  0  0  0  0  0  0
   10.7224   -0.2981    0.0000 O   0  0  0  0  0  0  0  0  0  0  0  0
    7.2125    3.7673    0.0000 O   0  0  0  0  0  0  0  0  0  0  0  0
    3.7320    3.7327    0.0000 O   0  0  0  0  0  0  0  0  0  0  0  0
    8.9942    0.7086    0.0000 N   0  0  0  0  0  0  0  0  0  0  0  0
    4.5981   -0.7673    0.0000 N   0  0  0  0  0  0  0  0  0  0  0  0
    2.8660    2.2327    0.0000 N   0  0  0  0  0  0  0  0  0  0  0  0
    5.4641    0.7327    0.0000 C   0  0  0  0  0  0  0  0  0  0  0  0
    8.9904   -0.2914    0.0000 C   0  0  0  0  0  0  0  0  0  0  0  0
    9.8622    1.2052    0.0000 C   0  0  0  0  0  0  0  0  0  0  0  0
    5.4641   -0.2673    0.0000 C   0  0  3  0  0  0  0  0  0  0  0  0
    6.3301    1.2327    0.0000 C   0  0  0  0  0  0  0  0  0  0  0  0
    8.1301    1.2119    0.0000 C   0  0  0  0  0  0  0  0  0  0  0  0
    6.3301    2.2327    0.0000 C   0  0  0  0  0  0  0  0  0  0  0  0
   10.7263    0.7019    0.0000 C   0  0  0  0  0  0  0  0  0  0  0  0
    9.8545   -0.7948    0.0000 C   0  0  0  0  0  0  0  0  0  0  0  0
    4.5981    1.2327    0.0000 C   0  0  0  0  0  0  0  0  0  0  0  0
    8.1301    2.2535    0.0000 C   0  0  0  0  0  0  0  0  0  0  0  0
    4.5981    2.2327    0.0000 C   0  0  0  0  0  0  0  0  0  0  0  0
    7.2241    2.7674    0.0000 C   0  0  0  0  0  0  0  0  0  0  0  0
    5.4641    2.7327    0.0000 C   0  0  0  0  0  0  0  0  0  0  0  0
    6.3301   -0.7673    0.0000 C   0  0  0  0  0  0  0  0  0  0  0  0
    3.7320    2.7327    0.0000 C   0  0  0  0  0  0  0  0  0  0  0  0
    4.5981   -1.7673    0.0000 C   0  0  0  0  0  0  0  0  0  0  0  0
    3.7320   -2.2673    0.0000 C   0  0  0  0  0  0  0  0  0  0  0  0
    5.4641   -2.2673    0.0000 C   0  0  0  0  0  0  0  0  0  0  0  0
    2.0000    2.7327    0.0000 C   0  0  0  0  0  0  0  0  0  0  0  0
    2.8660    1.2327    0.0000 C   0  0  0  0  0  0  0  0  0  0  0  0
    5.4641   -3.2673    0.0000 C   0  0  0  0  0  0  0  0  0  0  0  0
    3.7320   -3.2673    0.0000 C   0  0  0  0  0  0  0  0  0  0  0  0
    4.5981   -3.7673    0.0000 C   0  0  0  0  0  0  0  0  0  0  0  0
    8.3802   -0.1814    0.0000 H   0  0  0  0  0  0  0  0  0  0  0  0
    8.7761   -0.8732    0.0000 H   0  0  0  0  0  0  0  0  0  0  0  0
   10.2625    1.6786    0.0000 H   0  0  0  0  0  0  0  0  0  0  0  0
    9.4655    1.6817    0.0000 H   0  0  0  0  0  0  0  0  0  0  0  0
    5.4641   -0.8873    0.0000 H   0  0  0  0  0  0  0  0  0  0  0  0
    9.4541   -1.2682    0.0000 H   0  0  0  0  0  0  0  0  0  0  0  0
   10.2512   -1.2712    0.0000 H   0  0  0  0  0  0  0  0  0  0  0  0
   11.3364    0.5919    0.0000 H   0  0  0  0  0  0  0  0  0  0  0  0
   10.9406    1.2837    0.0000 H   0  0  0  0  0  0  0  0  0  0  0  0
    4.0611    0.9227    0.0000 H   0  0  0  0  0  0  0  0  0  0  0  0
    8.6659    2.5656    0.0000 H   0  0  0  0  0  0  0  0  0  0  0  0
    5.4641    3.3527    0.0000 H   0  0  0  0  0  0  0  0  0  0  0  0
    6.0201   -1.3042    0.0000 H   0  0  0  0  0  0  0  0  0  0  0  0
    6.8671   -1.0773    0.0000 H   0  0  0  0  0  0  0  0  0  0  0  0
    6.6401   -0.2304    0.0000 H   0  0  0  0  0  0  0  0  0  0  0  0
    4.0611   -0.4573    0.0000 H   0  0  0  0  0  0  0  0  0  0  0  0
    3.1951   -1.9573    0.0000 H   0  0  0  0  0  0  0  0  0  0  0  0
    6.0010   -1.9573    0.0000 H   0  0  0  0  0  0  0  0  0  0  0  0
    2.3100    3.2696    0.0000 H   0  0  0  0  0  0  0  0  0  0  0  0
    1.4631    3.0427    0.0000 H   0  0  0  0  0  0  0  0  0  0  0  0
    1.6900    2.1958    0.0000 H   0  0  0  0  0  0  0  0  0  0  0  0
    2.2460    1.2327    0.0000 H   0  0  0  0  0  0  0  0  0  0  0  0
    2.8660    0.6127    0.0000 H   0  0  0  0  0  0  0  0  0  0  0  0
    3.4860    1.2327    0.0000 H   0  0  0  0  0  0  0  0  0  0  0  0
    4.5981   -4.3873    0.0000 H   0  0  0  0  0  0  0  0  0  0  0  0
  1 31  1  0  0  0  0
  2 32  1  0  0  0  0
  3 14  1  0  0  0  0
  3 15  1  0  0  0  0
  4 17  1  0  0  0  0
  4 18  1  0  0  0  0
  5 22  2  0  0  0  0
  6 25  2  0  0  0  0
  7 11  1  0  0  0  0
  7 12  1  0  0  0  0
  7 15  1  0  0  0  0
  8 13  1  0  0  0  0
  8 26  1  0  0  0  0
  8 49  1  0  0  0  0
  9 25  1  0  0  0  0
  9 29  1  0  0  0  0
  9 30  1  0  0  0  0
 10 13  1  0  0  0  0
 10 14  1  0  0  0  0
 10 19  2  0  0  0  0
 11 18  1  0  0  0  0
 11 34  1  0  0  0  0
 11 35  1  0  0  0  0
 12 17  1  0  0  0  0
 12 36  1  0  0  0  0
 12 37  1  0  0  0  0
 13 24  1  0  0  0  0
 13 38  1  0  0  0  0
 14 16  2  0  0  0  0
 15 20  2  0  0  0  0
 16 22  1  0  0  0  0
 16 23  1  0  0  0  0
 17 41  1  0  0  0  0
 17 42  1  0  0  0  0
 18 39  1  0  0  0  0
 18 40  1  0  0  0  0
 19 21  1  0  0  0  0
 19 43  1  0  0  0  0
 20 22  1  0  0  0  0
 20 44  1  0  0  0  0
 21 23  2  0  0  0  0
 21 25  1  0  0  0  0
 23 45  1  0  0  0  0
 24 46  1  0  0  0  0
 24 47  1  0  0  0  0
 24 48  1  0  0  0  0
 26 27  2  0  0  0  0
 26 28  1  0  0  0  0
 27 32  1  0  0  0  0
 27 50  1  0  0  0  0
 28 31  2  0  0  0  0
 28 51  1  0  0  0  0
 29 52  1  0  0  0  0
 29 53  1  0  0  0  0
 29 54  1  0  0  0  0
 30 55  1  0  0  0  0
 30 56  1  0  0  0  0
 30 57  1  0  0  0  0
 31 33  1  0  0  0  0
 32 33  2  0  0  0  0
 33 58  1  0  0  0  0
M  END
> <PUBCHEM_COMPOUND_CID>
52913929

> <PUBCHEM_COMPOUND_CANONICALIZED>
1

> <PUBCHEM_CACTVS_COMPLEXITY>
748

> <PUBCHEM_CACTVS_HBOND_ACCEPTOR>
8

> <PUBCHEM_CACTVS_HBOND_DONOR>
1

> <PUBCHEM_CACTVS_ROTATABLE_BOND>
5

> <PUBCHEM_CACTVS_SUBSKEYS>
AAADceB7OYAAAAAAAAAAAAAAAAAAAAAAAAA8YIEAAAAAAACBQAAAHwAQAAAADCzhmA4yxoPABACIAqVSUACCCAAlIgAAiIEMbMgOJjbEtZuPMWhm8hHY6ceY3+L+IAACAAAIAABAAAQAABAAAAAAAAAAAA==

> <PUBCHEM_IUPAC_OPENEYE_NAME>
8-[1-(3,5-difluoroanilino)ethyl]-N,N-dimethyl-2-morpholino-4-oxo-chromene-6-carboxamide

> <PUBCHEM_IUPAC_CAS_NAME>
8-[1-(3,5-difluoroanilino)ethyl]-N,N-dimethyl-2-(4-morpholinyl)-4-oxo-1-benzopyran-6-carboxamide

> <PUBCHEM_IUPAC_NAME>
8-[1-(3,5-difluoroanilino)ethyl]-N,N-dimethyl-2-morpholin-4-yl-4-oxochromene-6-carboxamide

> <PUBCHEM_IUPAC_SYSTEMATIC_NAME>
8-[1-[[3,5-bis(fluoranyl)phenyl]amino]ethyl]-N,N-dimethyl-2-morpholin-4-yl-4-oxidanylidene-chromene-6-carboxamide

> <PUBCHEM_IUPAC_TRADITIONAL_NAME>
8-[1-(3,5-difluoroanilino)ethyl]-4-keto-N,N-dimethyl-2-morpholino-chromene-6-carboxamide

> <PUBCHEM_IUPAC_INCHI>
InChI=1S/C24H25F2N3O4/c1-14(27-18-11-16(25)10-17(26)12-18)19-8-15(24(31)28(2)3)9-20-21(30)13-22(33-23(19)20)29-4-6-32-7-5-29/h8-14,27H,4-7H2,1-3H3

> <PUBCHEM_IUPAC_INCHIKEY>
LMJFJIDLEAWOQJ-UHFFFAOYSA-N

> <PUBCHEM_XLOGP3_AA>
3

> <PUBCHEM_EXACT_MASS>
457.181313

> <PUBCHEM_MOLECULAR_FORMULA>
C24H25F2N3O4

> <PUBCHEM_MOLECULAR_WEIGHT>
457.469806

> <PUBCHEM_OPENEYE_CAN_SMILES>
CC(C1=C2C(=CC(=C1)C(=O)N(C)C)C(=O)C=C(O2)N3CCOCC3)NC4=CC(=CC(=C4)F)F

> <PUBCHEM_OPENEYE_ISO_SMILES>
CC(C1=C2C(=CC(=C1)C(=O)N(C)C)C(=O)C=C(O2)N3CCOCC3)NC4=CC(=CC(=C4)F)F

> <PUBCHEM_CACTVS_TPSA>
71.1

> <PUBCHEM_MONOISOTOPIC_WEIGHT>
457.181313

> <PUBCHEM_TOTAL_CHARGE>
0

> <PUBCHEM_HEAVY_ATOM_COUNT>
33

> <PUBCHEM_ATOM_DEF_STEREO_COUNT>
0

> <PUBCHEM_ATOM_UDEF_STEREO_COUNT>
1

> <PUBCHEM_BOND_DEF_STEREO_COUNT>
0

> <PUBCHEM_BOND_UDEF_STEREO_COUNT>
0

> <PUBCHEM_ISOTOPIC_ATOM_COUNT>
0

> <PUBCHEM_COMPONENT_COUNT>
1

> <PUBCHEM_CACTVS_TAUTO_COUNT>
1

> <PUBCHEM_COORDINATE_TYPE>
1
5
255

> <PUBCHEM_BONDANNOTATIONS>
10  14  8
10  19  8
13  24  3
14  16  8
15  20  8
16  22  8
16  23  8
19  21  8
20  22  8
21  23  8
26  27  8
26  28  8
27  32  8
28  31  8
3  14  8
3  15  8
31  33  8
32  33  8

$$$$
54761306
  -OEChem-11121519512D

 53 57  0     1  0  0  0  0  0999 V2000
    3.0000    2.5420    0.0000 S   0  0  1  0  0  0  0  0  0  0  0  0
    4.0000    2.5420    0.0000 O   0  0  0  0  0  0  0  0  0  0  0  0
    8.1962    2.5420    0.0000 O   0  0  0  0  0  0  0  0  0  0  0  0
    3.0000    3.5420    0.0000 N   0  0  0  0  0  0  0  0  0  0  0  0
    3.8660    0.0420    0.0000 N   0  0  0  0  0  0  0  0  0  0  0  0
    6.4641    1.5420    0.0000 N   0  0  0  0  0  0  0  0  0  0  0  0
    5.5981    0.0420    0.0000 N   0  0  0  0  0  0  0  0  0  0  0  0
    6.5443   -3.2627    0.0000 N   0  0  0  0  0  0  0  0  0  0  0  0
    4.7320   -3.4580    0.0000 N   0  0  0  0  0  0  0  0  0  0  0  0
    3.0000    1.5420    0.0000 C   0  0  0  0  0  0  0  0  0  0  0  0
    2.5000    0.6760    0.0000 C   0  0  0  0  0  0  0  0  0  0  0  0
    2.0000    1.5420    0.0000 C   0  0  0  0  0  0  0  0  0  0  0  0
    3.8660    1.0420    0.0000 C   0  0  0  0  0  0  0  0  0  0  0  0
    2.0000    2.5420    0.0000 C   0  0  0  0  0  0  0  0  0  0  0  0
    4.7320    1.5420    0.0000 C   0  0  0  0  0  0  0  0  0  0  0  0
    5.5981    1.0420    0.0000 C   0  0  0  0  0  0  0  0  0  0  0  0
    4.7320   -0.4580    0.0000 C   0  0  0  0  0  0  0  0  0  0  0  0
    7.3301    1.0420    0.0000 C   0  0  1  0  0  0  0  0  0  0  0  0
    6.4641    2.5420    0.0000 C   0  0  0  0  0  0  0  0  0  0  0  0
    8.1962    1.5420    0.0000 C   0  0  0  0  0  0  0  0  0  0  0  0
    4.7320   -1.4580    0.0000 C   0  0  0  0  0  0  0  0  0  0  0  0
    7.3301    3.0420    0.0000 C   0  0  0  0  0  0  0  0  0  0  0  0
    7.3301    0.0420    0.0000 C   0  0  0  0  0  0  0  0  0  0  0  0
    5.5981   -1.9580    0.0000 C   0  0  0  0  0  0  0  0  0  0  0  0
    3.8660   -1.9580    0.0000 C   0  0  0  0  0  0  0  0  0  0  0  0
    5.5981   -2.9580    0.0000 C   0  0  0  0  0  0  0  0  0  0  0  0
    6.5443   -1.6532    0.0000 C   0  0  0  0  0  0  0  0  0  0  0  0
    3.8660   -2.9580    0.0000 C   0  0  0  0  0  0  0  0  0  0  0  0
    7.1279   -2.4580    0.0000 C   0  0  0  0  0  0  0  0  0  0  0  0
    2.0250    0.2775    0.0000 H   0  0  0  0  0  0  0  0  0  0  0  0
    2.9750    0.2775    0.0000 H   0  0  0  0  0  0  0  0  0  0  0  0
    1.8923    2.1526    0.0000 H   0  0  0  0  0  0  0  0  0  0  0  0
    1.4174    1.3300    0.0000 H   0  0  0  0  0  0  0  0  0  0  0  0
    2.0000    3.1620    0.0000 H   0  0  0  0  0  0  0  0  0  0  0  0
    1.3800    2.5420    0.0000 H   0  0  0  0  0  0  0  0  0  0  0  0
    2.0000    1.9220    0.0000 H   0  0  0  0  0  0  0  0  0  0  0  0
    4.7320    2.1620    0.0000 H   0  0  0  0  0  0  0  0  0  0  0  0
    2.4631    3.8520    0.0000 H   0  0  0  0  0  0  0  0  0  0  0  0
    6.7932    0.7320    0.0000 H   0  0  0  0  0  0  0  0  0  0  0  0
    6.2520    3.1246    0.0000 H   0  0  0  0  0  0  0  0  0  0  0  0
    5.8535    2.4344    0.0000 H   0  0  0  0  0  0  0  0  0  0  0  0
    8.4082    0.9594    0.0000 H   0  0  0  0  0  0  0  0  0  0  0  0
    8.8067    1.6497    0.0000 H   0  0  0  0  0  0  0  0  0  0  0  0
    7.7287    3.5170    0.0000 H   0  0  0  0  0  0  0  0  0  0  0  0
    6.9316    3.5170    0.0000 H   0  0  0  0  0  0  0  0  0  0  0  0
    6.7101    0.0420    0.0000 H   0  0  0  0  0  0  0  0  0  0  0  0
    7.3301   -0.5780    0.0000 H   0  0  0  0  0  0  0  0  0  0  0  0
    7.9501    0.0420    0.0000 H   0  0  0  0  0  0  0  0  0  0  0  0
    3.3291   -1.6480    0.0000 H   0  0  0  0  0  0  0  0  0  0  0  0
    6.7369   -1.0639    0.0000 H   0  0  0  0  0  0  0  0  0  0  0  0
    3.3291   -3.2680    0.0000 H   0  0  0  0  0  0  0  0  0  0  0  0
    6.7369   -3.8520    0.0000 H   0  0  0  0  0  0  0  0  0  0  0  0
    7.7479   -2.4580    0.0000 H   0  0  0  0  0  0  0  0  0  0  0  0
  1  2  2  0  0  0  0
  1  4  2  0  0  0  0
  1 10  1  0  0  0  0
  1 14  1  1  0  0  0
  3 20  1  0  0  0  0
  3 22  1  0  0  0  0
  4 38  1  0  0  0  0
  5 13  1  0  0  0  0
  5 17  2  0  0  0  0
  6 16  1  0  0  0  0
  6 18  1  0  0  0  0
  6 19  1  0  0  0  0
  7 16  2  0  0  0  0
  7 17  1  0  0  0  0
  8 26  1  0  0  0  0
  8 29  1  0  0  0  0
  8 52  1  0  0  0  0
  9 26  2  0  0  0  0
  9 28  1  0  0  0  0
 10 11  1  0  0  0  0
 10 12  1  0  0  0  0
 10 13  1  0  0  0  0
 11 12  1  0  0  0  0
 11 30  1  0  0  0  0
 11 31  1  0  0  0  0
 12 32  1  0  0  0  0
 12 33  1  0  0  0  0
 13 15  2  0  0  0  0
 14 34  1  0  0  0  0
 14 35  1  0  0  0  0
 14 36  1  0  0  0  0
 15 16  1  0  0  0  0
 15 37  1  0  0  0  0
 17 21  1  0  0  0  0
 18 20  1  0  0  0  0
 18 23  1  1  0  0  0
 18 39  1  0  0  0  0
 19 22  1  0  0  0  0
 19 40  1  0  0  0  0
 19 41  1  0  0  0  0
 20 42  1  0  0  0  0
 20 43  1  0  0  0  0
 21 24  2  0  0  0  0
 21 25  1  0  0  0  0
 22 44  1  0  0  0  0
 22 45  1  0  0  0  0
 23 46  1  0  0  0  0
 23 47  1  0  0  0  0
 23 48  1  0  0  0  0
 24 26  1  0  0  0  0
 24 27  1  0  0  0  0
 25 28  2  0  0  0  0
 25 49  1  0  0  0  0
 27 29  2  0  0  0  0
 27 50  1  0  0  0  0
 28 51  1  0  0  0  0
 29 53  1  0  0  0  0
M  END
> <PUBCHEM_COMPOUND_CID>
54761306

> <PUBCHEM_COMPOUND_CANONICALIZED>
1

> <PUBCHEM_CACTVS_COMPLEXITY>
724

> <PUBCHEM_CACTVS_HBOND_ACCEPTOR>
7

> <PUBCHEM_CACTVS_HBOND_DONOR>
2

> <PUBCHEM_CACTVS_ROTATABLE_BOND>
4

> <PUBCHEM_CACTVS_SUBSKEYS>
AAADceB7sABAAAAAAAAAAAAAGAAAAWAAAAAsWLAAAAAAAFgB/gAAHgQQQAAADCjh3wa/sN/JlAqgAzZnZEDCgCmxArAJ2aA4ZJiKKOLg2NGHJAhokALYyCcQAAAOgAAAAAAAAAAAAAAAAAAAAAAAAAAAAA==

> <PUBCHEM_IUPAC_OPENEYE_NAME>
imino-methyl-[1-[6-[(3R)-3-methylmorpholin-4-yl]-2-(1H-pyrrolo[2,3-b]pyridin-4-yl)pyrimidin-4-yl]cyclopropyl]-oxo-$l^{6}-sulfane

> <PUBCHEM_IUPAC_CAS_NAME>
imino-methyl-[1-[6-[(3R)-3-methyl-4-morpholinyl]-2-(1H-pyrrolo[2,3-b]pyridin-4-yl)-4-pyrimidinyl]cyclopropyl]-oxo-$l^{6}-sulfane

> <PUBCHEM_IUPAC_NAME>
imino-methyl-[1-[6-[(3R)-3-methylmorpholin-4-yl]-2-(1H-pyrrolo[2,3-b]pyridin-4-yl)pyrimidin-4-yl]cyclopropyl]-oxo-$l^{6}-sulfane

> <PUBCHEM_IUPAC_SYSTEMATIC_NAME>
azanylidene-methyl-[1-[6-[(3R)-3-methylmorpholin-4-yl]-2-(1H-pyrrolo[2,3-b]pyridin-4-yl)pyrimidin-4-yl]cyclopropyl]-oxidanylidene-$l^{6}-sulfane

> <PUBCHEM_IUPAC_TRADITIONAL_NAME>
imino-keto-methyl-[1-[6-[(3R)-3-methylmorpholino]-2-(1H-pyrrolo[2,3-b]pyridin-4-yl)pyrimidin-4-yl]cyclopropyl]-$l^{6}-sulfane

> <PUBCHEM_IUPAC_INCHI>
InChI=1S/C20H24N6O2S/c1-13-12-28-10-9-26(13)17-11-16(20(5-6-20)29(2,21)27)24-19(25-17)15-4-8-23-18-14(15)3-7-22-18/h3-4,7-8,11,13,21H,5-6,9-10,12H2,1-2H3,(H,22,23)/t13-,29-/m1/s1

> <PUBCHEM_IUPAC_INCHIKEY>
OHUHVTCQTUDPIJ-JYCIKRDWSA-N

> <PUBCHEM_XLOGP3_AA>
2.6

> <PUBCHEM_EXACT_MASS>
412.168145

> <PUBCHEM_MOLECULAR_FORMULA>
C20H24N6O2S

> <PUBCHEM_MOLECULAR_WEIGHT>
412.50856

> <PUBCHEM_OPENEYE_CAN_SMILES>
CC1COCCN1C2=NC(=NC(=C2)C3(CC3)S(=N)(=O)C)C4=C5C=CNC5=NC=C4

> <PUBCHEM_OPENEYE_ISO_SMILES>
C[C@@H]1COCCN1C2=NC(=NC(=C2)C3(CC3)[S@](=N)(=O)C)C4=C5C=CNC5=NC=C4

> <PUBCHEM_CACTVS_TPSA>
116

> <PUBCHEM_MONOISOTOPIC_WEIGHT>
412.168145

> <PUBCHEM_TOTAL_CHARGE>
0

> <PUBCHEM_HEAVY_ATOM_COUNT>
29

> <PUBCHEM_ATOM_DEF_STEREO_COUNT>
2

> <PUBCHEM_ATOM_UDEF_STEREO_COUNT>
0

> <PUBCHEM_BOND_DEF_STEREO_COUNT>
0

> <PUBCHEM_BOND_UDEF_STEREO_COUNT>
0

> <PUBCHEM_ISOTOPIC_ATOM_COUNT>
0

> <PUBCHEM_COMPONENT_COUNT>
1

> <PUBCHEM_CACTVS_TAUTO_COUNT>
4

> <PUBCHEM_COORDINATE_TYPE>
1
5
255

> <PUBCHEM_BONDANNOTATIONS>
1  14  5
13  15  8
15  16  8
18  23  5
21  24  8
21  25  8
24  26  8
24  27  8
25  28  8
27  29  8
5  13  8
5  17  8
7  16  8
7  17  8
8  26  8
8  29  8
9  26  8
9  28  8

$$$$
56599293
  -OEChem-11121519512D

 57 61  0     0  0  0  0  0  0999 V2000
    3.3426   -2.1263    0.0000 Cl  0  0  0  0  0  0  0  0  0  0  0  0
    9.2136   -0.8890    0.0000 O   0  0  0  0  0  0  0  0  0  0  0  0
    8.4993    2.5007    0.0000 N   0  0  0  0  0  0  0  0  0  0  0  0
    9.4312    5.3522    0.0000 N   0  0  0  0  0  0  0  0  0  0  0  0
    7.2566   -1.3014    0.0000 N   0  0  0  0  0  0  0  0  0  0  0  0
    4.6783   -5.2244    0.0000 N   0  0  0  0  0  0  0  0  0  0  0  0
    5.9674   -2.4582    0.0000 N   0  0  0  0  0  0  0  0  0  0  0  0
    5.6103   -0.7633    0.0000 N   0  0  0  0  0  0  0  0  0  0  0  0
    9.1206    4.4017    0.0000 C   0  0  0  0  0  0  0  0  0  0  0  0
    9.7884    3.6574    0.0000 C   0  0  0  0  0  0  0  0  0  0  0  0
    8.1421    4.1955    0.0000 C   0  0  0  0  0  0  0  0  0  0  0  0
    9.4778    2.7069    0.0000 C   0  0  0  0  0  0  0  0  0  0  0  0
    7.8314    3.2450    0.0000 C   0  0  0  0  0  0  0  0  0  0  0  0
    8.1886    1.5501    0.0000 C   0  0  0  0  0  0  0  0  0  0  0  0
    8.8564    0.8058    0.0000 C   0  0  0  0  0  0  0  0  0  0  0  0
    7.2101    1.3439    0.0000 C   0  0  0  0  0  0  0  0  0  0  0  0
    8.5458   -0.1447    0.0000 C   0  0  0  0  0  0  0  0  0  0  0  0
    6.8994    0.3934    0.0000 C   0  0  0  0  0  0  0  0  0  0  0  0
    7.5673   -0.3509    0.0000 C   0  0  0  0  0  0  0  0  0  0  0  0
    4.6783   -3.6149    0.0000 C   0  0  0  0  0  0  0  0  0  0  0  0
    3.7320   -3.9196    0.0000 C   0  0  0  0  0  0  0  0  0  0  0  0
    3.7320   -4.9196    0.0000 C   0  0  0  0  0  0  0  0  0  0  0  0
    6.2781   -1.5076    0.0000 C   0  0  0  0  0  0  0  0  0  0  0  0
    4.9889   -2.6644    0.0000 C   0  0  0  0  0  0  0  0  0  0  0  0
    5.2619   -4.4196    0.0000 C   0  0  0  0  0  0  0  0  0  0  0  0
    2.8660   -3.4196    0.0000 C   0  0  0  0  0  0  0  0  0  0  0  0
    2.8660   -5.4196    0.0000 C   0  0  0  0  0  0  0  0  0  0  0  0
   10.1921   -0.6828    0.0000 C   0  0  0  0  0  0  0  0  0  0  0  0
    4.3211   -1.9201    0.0000 C   0  0  0  0  0  0  0  0  0  0  0  0
    2.0000   -3.9196    0.0000 C   0  0  0  0  0  0  0  0  0  0  0  0
    2.0000   -4.9196    0.0000 C   0  0  0  0  0  0  0  0  0  0  0  0
    4.6318   -0.9696    0.0000 C   0  0  0  0  0  0  0  0  0  0  0  0
    9.7272    4.5296    0.0000 H   0  0  0  0  0  0  0  0  0  0  0  0
    8.1215    4.8151    0.0000 H   0  0  0  0  0  0  0  0  0  0  0  0
    7.5283    4.2828    0.0000 H   0  0  0  0  0  0  0  0  0  0  0  0
   10.3353    3.3654    0.0000 H   0  0  0  0  0  0  0  0  0  0  0  0
   10.1710    4.1453    0.0000 H   0  0  0  0  0  0  0  0  0  0  0  0
    7.2845    3.5370    0.0000 H   0  0  0  0  0  0  0  0  0  0  0  0
    7.4489    2.7571    0.0000 H   0  0  0  0  0  0  0  0  0  0  0  0
    9.4983    2.0872    0.0000 H   0  0  0  0  0  0  0  0  0  0  0  0
   10.0916    2.6195    0.0000 H   0  0  0  0  0  0  0  0  0  0  0  0
   10.0379    5.4801    0.0000 H   0  0  0  0  0  0  0  0  0  0  0  0
    9.0172    5.8137    0.0000 H   0  0  0  0  0  0  0  0  0  0  0  0
    9.4631    0.9337    0.0000 H   0  0  0  0  0  0  0  0  0  0  0  0
    6.7960    1.8054    0.0000 H   0  0  0  0  0  0  0  0  0  0  0  0
    6.2928    0.2655    0.0000 H   0  0  0  0  0  0  0  0  0  0  0  0
    7.6707   -1.7629    0.0000 H   0  0  0  0  0  0  0  0  0  0  0  0
    5.8819   -4.4196    0.0000 H   0  0  0  0  0  0  0  0  0  0  0  0
    4.8709   -5.8137    0.0000 H   0  0  0  0  0  0  0  0  0  0  0  0
    2.8660   -2.7996    0.0000 H   0  0  0  0  0  0  0  0  0  0  0  0
    2.8660   -6.0396    0.0000 H   0  0  0  0  0  0  0  0  0  0  0  0
   10.3200   -1.2894    0.0000 H   0  0  0  0  0  0  0  0  0  0  0  0
   10.7988   -0.5549    0.0000 H   0  0  0  0  0  0  0  0  0  0  0  0
   10.0643   -0.0761    0.0000 H   0  0  0  0  0  0  0  0  0  0  0  0
    1.4631   -3.6096    0.0000 H   0  0  0  0  0  0  0  0  0  0  0  0
    1.4631   -5.2296    0.0000 H   0  0  0  0  0  0  0  0  0  0  0  0
    4.2177   -0.5081    0.0000 H   0  0  0  0  0  0  0  0  0  0  0  0
  1 29  1  0  0  0  0
  2 17  1  0  0  0  0
  2 28  1  0  0  0  0
  3 12  1  0  0  0  0
  3 13  1  0  0  0  0
  3 14  1  0  0  0  0
  4  9  1  0  0  0  0
  4 42  1  0  0  0  0
  4 43  1  0  0  0  0
  5 19  1  0  0  0  0
  5 23  1  0  0  0  0
  5 47  1  0  0  0  0
  6 22  1  0  0  0  0
  6 25  1  0  0  0  0
  6 49  1  0  0  0  0
  7 23  1  0  0  0  0
  7 24  2  0  0  0  0
  8 23  2  0  0  0  0
  8 32  1  0  0  0  0
  9 10  1  0  0  0  0
  9 11  1  0  0  0  0
  9 33  1  0  0  0  0
 10 12  1  0  0  0  0
 10 36  1  0  0  0  0
 10 37  1  0  0  0  0
 11 13  1  0  0  0  0
 11 34  1  0  0  0  0
 11 35  1  0  0  0  0
 12 40  1  0  0  0  0
 12 41  1  0  0  0  0
 13 38  1  0  0  0  0
 13 39  1  0  0  0  0
 14 15  2  0  0  0  0
 14 16  1  0  0  0  0
 15 17  1  0  0  0  0
 15 44  1  0  0  0  0
 16 18  2  0  0  0  0
 16 45  1  0  0  0  0
 17 19  2  0  0  0  0
 18 19  1  0  0  0  0
 18 46  1  0  0  0  0
 20 21  1  0  0  0  0
 20 24  1  0  0  0  0
 20 25  2  0  0  0  0
 21 22  1  0  0  0  0
 21 26  2  0  0  0  0
 22 27  2  0  0  0  0
 24 29  1  0  0  0  0
 25 48  1  0  0  0  0
 26 30  1  0  0  0  0
 26 50  1  0  0  0  0
 27 31  1  0  0  0  0
 27 51  1  0  0  0  0
 28 52  1  0  0  0  0
 28 53  1  0  0  0  0
 28 54  1  0  0  0  0
 29 32  2  0  0  0  0
 30 31  2  0  0  0  0
 30 55  1  0  0  0  0
 31 56  1  0  0  0  0
 32 57  1  0  0  0  0
M  END
> <PUBCHEM_COMPOUND_CID>
56599293

> <PUBCHEM_COMPOUND_CANONICALIZED>
1

> <PUBCHEM_CACTVS_COMPLEXITY>
605

> <PUBCHEM_CACTVS_HBOND_ACCEPTOR>
6

> <PUBCHEM_CACTVS_HBOND_DONOR>
3

> <PUBCHEM_CACTVS_ROTATABLE_BOND>
5

> <PUBCHEM_CACTVS_SUBSKEYS>
AAADceB7oAAEAAAAAAAAAAAAAAAAAWAAAAA8eIEAAAAAAFgB/AAAHgIQAAAADC7BniY/1vfJlACgAzRnZACCiCkxJ6AJ2aA/bpiOLuLF+dvFNChu0BvY6CeQ0MMOgACAAgACEAAAAQAEAAQgAAAAAAAAAA==

> <PUBCHEM_IUPAC_OPENEYE_NAME>
N-[4-(4-amino-1-piperidyl)-2-methoxy-phenyl]-5-chloro-4-(1H-indol-3-yl)pyrimidin-2-amine

> <PUBCHEM_IUPAC_CAS_NAME>
N-[4-(4-amino-1-piperidinyl)-2-methoxyphenyl]-5-chloro-4-(1H-indol-3-yl)-2-pyrimidinamine

> <PUBCHEM_IUPAC_NAME>
N-[4-(4-aminopiperidin-1-yl)-2-methoxyphenyl]-5-chloro-4-(1H-indol-3-yl)pyrimidin-2-amine

> <PUBCHEM_IUPAC_SYSTEMATIC_NAME>
N-[4-(4-azanylpiperidin-1-yl)-2-methoxy-phenyl]-5-chloranyl-4-(1H-indol-3-yl)pyrimidin-2-amine

> <PUBCHEM_IUPAC_TRADITIONAL_NAME>
[4-(4-aminopiperidino)-2-methoxy-phenyl]-[5-chloro-4-(1H-indol-3-yl)pyrimidin-2-yl]amine

> <PUBCHEM_IUPAC_INCHI>
InChI=1S/C24H25ClN6O/c1-32-22-12-16(31-10-8-15(26)9-11-31)6-7-21(22)29-24-28-14-19(25)23(30-24)18-13-27-20-5-3-2-4-17(18)20/h2-7,12-15,27H,8-11,26H2,1H3,(H,28,29,30)

> <PUBCHEM_IUPAC_INCHIKEY>
GCYIGMXOIWJGBU-UHFFFAOYSA-N

> <PUBCHEM_XLOGP3_AA>
4.2

> <PUBCHEM_EXACT_MASS>
448.177837

> <PUBCHEM_MOLECULAR_FORMULA>
C24H25ClN6O

> <PUBCHEM_MOLECULAR_WEIGHT>
448.9479

> <PUBCHEM_OPENEYE_CAN_SMILES>
COC1=C(C=CC(=C1)N2CCC(CC2)N)NC3=NC=C(C(=N3)C4=CNC5=CC=CC=C54)Cl

> <PUBCHEM_OPENEYE_ISO_SMILES>
COC1=C(C=CC(=C1)N2CCC(CC2)N)NC3=NC=C(C(=N3)C4=CNC5=CC=CC=C54)Cl

> <PUBCHEM_CACTVS_TPSA>
92.1

> <PUBCHEM_MONOISOTOPIC_WEIGHT>
448.177837

> <PUBCHEM_TOTAL_CHARGE>
0

> <PUBCHEM_HEAVY_ATOM_COUNT>
32

> <PUBCHEM_ATOM_DEF_STEREO_COUNT>
0

> <PUBCHEM_ATOM_UDEF_STEREO_COUNT>
0

> <PUBCHEM_BOND_DEF_STEREO_COUNT>
0

> <PUBCHEM_BOND_UDEF_STEREO_COUNT>
0

> <PUBCHEM_ISOTOPIC_ATOM_COUNT>
0

> <PUBCHEM_COMPONENT_COUNT>
1

> <PUBCHEM_CACTVS_TAUTO_COUNT>
9

> <PUBCHEM_COORDINATE_TYPE>
1
5
255

> <PUBCHEM_BONDANNOTATIONS>
14  15  8
14  16  8
15  17  8
16  18  8
17  19  8
18  19  8
20  21  8
20  25  8
21  22  8
21  26  8
22  27  8
24  29  8
26  30  8
27  31  8
29  32  8
30  31  8
6  22  8
6  25  8
7  23  8
7  24  8
8  23  8
8  32  8

$$$$
56649450
  -OEChem-11121519512D

 52 54  0     1  0  0  0  0  0999 V2000
    7.9192   -1.1229    0.0000 S   0  0  0  0  0  0  0  0  0  0  0  0
    9.7558    4.8716    0.0000 F   0  0  0  0  0  0  0  0  0  0  0  0
   10.7558    3.8716    0.0000 F   0  0  0  0  0  0  0  0  0  0  0  0
    8.7558    3.8716    0.0000 F   0  0  0  0  0  0  0  0  0  0  0  0
    3.6197   -1.8231    0.0000 O   0  0  0  0  0  0  0  0  0  0  0  0
    4.9520   -1.5399    0.0000 O   0  0  0  0  0  0  0  0  0  0  0  0
    5.1331   -3.2624    0.0000 N   0  0  0  0  0  0  0  0  0  0  0  0
    6.5344   -2.2444    0.0000 N   0  0  0  0  0  0  0  0  0  0  0  0
    2.4608   -3.1102    0.0000 N   0  0  0  0  0  0  0  0  0  0  0  0
   10.6218    1.3716    0.0000 N   0  0  0  0  0  0  0  0  0  0  0  0
    6.4411   -0.4648    0.0000 N   0  0  0  0  0  0  0  0  0  0  0  0
    4.1550   -3.4704    0.0000 C   0  0  1  0  0  0  0  0  0  0  0  0
    4.0504   -4.4649    0.0000 C   0  0  0  0  0  0  0  0  0  0  0  0
    4.9640   -4.8716    0.0000 C   0  0  0  0  0  0  0  0  0  0  0  0
    5.6331   -4.1285    0.0000 C   0  0  0  0  0  0  0  0  0  0  0  0
    3.4118   -2.8012    0.0000 C   0  0  0  0  0  0  0  0  0  0  0  0
    5.5398   -2.3489    0.0000 C   0  0  0  0  0  0  0  0  0  0  0  0
    9.7558    2.8716    0.0000 C   0  0  0  0  0  0  0  0  0  0  0  0
    9.7558    1.8716    0.0000 C   0  0  0  0  0  0  0  0  0  0  0  0
    9.7558    3.8716    0.0000 C   0  0  0  0  0  0  0  0  0  0  0  0
   10.7558    2.8716    0.0000 C   0  0  0  0  0  0  0  0  0  0  0  0
    8.7558    2.8716    0.0000 C   0  0  0  0  0  0  0  0  0  0  0  0
    8.8898    1.3716    0.0000 C   0  0  0  0  0  0  0  0  0  0  0  0
    8.8898    0.3716    0.0000 C   0  0  0  0  0  0  0  0  0  0  0  0
    6.9411   -1.3308    0.0000 C   0  0  0  0  0  0  0  0  0  0  0  0
    8.0238   -0.1284    0.0000 C   0  0  0  0  0  0  0  0  0  0  0  0
    7.1102    0.2783    0.0000 C   0  0  0  0  0  0  0  0  0  0  0  0
    9.7558   -0.1284    0.0000 C   0  0  0  0  0  0  0  0  0  0  0  0
   10.6218    0.3716    0.0000 C   0  0  0  0  0  0  0  0  0  0  0  0
    6.9023    1.2565    0.0000 C   0  0  0  0  0  0  0  0  0  0  0  0
    4.3154   -2.8715    0.0000 H   0  0  0  0  0  0  0  0  0  0  0  0
    3.4440   -4.3360    0.0000 H   0  0  0  0  0  0  0  0  0  0  0  0
    3.8588   -5.0545    0.0000 H   0  0  0  0  0  0  0  0  0  0  0  0
    4.6540   -5.4086    0.0000 H   0  0  0  0  0  0  0  0  0  0  0  0
    5.4656   -5.2360    0.0000 H   0  0  0  0  0  0  0  0  0  0  0  0
    6.0480   -4.5892    0.0000 H   0  0  0  0  0  0  0  0  0  0  0  0
    6.1347   -3.7640    0.0000 H   0  0  0  0  0  0  0  0  0  0  0  0
    6.8988   -2.7460    0.0000 H   0  0  0  0  0  0  0  0  0  0  0  0
   10.7558    2.2516    0.0000 H   0  0  0  0  0  0  0  0  0  0  0  0
   11.3758    2.8716    0.0000 H   0  0  0  0  0  0  0  0  0  0  0  0
   10.7558    3.4916    0.0000 H   0  0  0  0  0  0  0  0  0  0  0  0
    8.7558    3.4916    0.0000 H   0  0  0  0  0  0  0  0  0  0  0  0
    8.1358    2.8716    0.0000 H   0  0  0  0  0  0  0  0  0  0  0  0
    8.7558    2.2516    0.0000 H   0  0  0  0  0  0  0  0  0  0  0  0
    2.0000   -2.6954    0.0000 H   0  0  0  0  0  0  0  0  0  0  0  0
    2.3318   -3.7167    0.0000 H   0  0  0  0  0  0  0  0  0  0  0  0
    8.3529    1.6816    0.0000 H   0  0  0  0  0  0  0  0  0  0  0  0
    9.7558   -0.7484    0.0000 H   0  0  0  0  0  0  0  0  0  0  0  0
   11.1588    0.0616    0.0000 H   0  0  0  0  0  0  0  0  0  0  0  0
    7.5088    1.3854    0.0000 H   0  0  0  0  0  0  0  0  0  0  0  0
    6.7734    1.8630    0.0000 H   0  0  0  0  0  0  0  0  0  0  0  0
    6.2959    1.1276    0.0000 H   0  0  0  0  0  0  0  0  0  0  0  0
  1 25  1  0  0  0  0
  1 26  1  0  0  0  0
  2 20  1  0  0  0  0
  3 20  1  0  0  0  0
  4 20  1  0  0  0  0
  5 16  2  0  0  0  0
  6 17  2  0  0  0  0
  7 12  1  0  0  0  0
  7 15  1  0  0  0  0
  7 17  1  0  0  0  0
  8 17  1  0  0  0  0
  8 25  1  0  0  0  0
  8 38  1  0  0  0  0
  9 16  1  0  0  0  0
  9 45  1  0  0  0  0
  9 46  1  0  0  0  0
 10 19  2  0  0  0  0
 10 29  1  0  0  0  0
 11 25  2  0  0  0  0
 11 27  1  0  0  0  0
 12 13  1  0  0  0  0
 12 16  1  1  0  0  0
 12 31  1  0  0  0  0
 13 14  1  0  0  0  0
 13 32  1  0  0  0  0
 13 33  1  0  0  0  0
 14 15  1  0  0  0  0
 14 34  1  0  0  0  0
 14 35  1  0  0  0  0
 15 36  1  0  0  0  0
 15 37  1  0  0  0  0
 18 19  1  0  0  0  0
 18 20  1  0  0  0  0
 18 21  1  0  0  0  0
 18 22  1  0  0  0  0
 19 23  1  0  0  0  0
 21 39  1  0  0  0  0
 21 40  1  0  0  0  0
 21 41  1  0  0  0  0
 22 42  1  0  0  0  0
 22 43  1  0  0  0  0
 22 44  1  0  0  0  0
 23 24  2  0  0  0  0
 23 47  1  0  0  0  0
 24 26  1  0  0  0  0
 24 28  1  0  0  0  0
 26 27  2  0  0  0  0
 27 30  1  0  0  0  0
 28 29  2  0  0  0  0
 28 48  1  0  0  0  0
 29 49  1  0  0  0  0
 30 50  1  0  0  0  0
 30 51  1  0  0  0  0
 30 52  1  0  0  0  0
M  END
> <PUBCHEM_COMPOUND_CID>
56649450

> <PUBCHEM_COMPOUND_CANONICALIZED>
1

> <PUBCHEM_CACTVS_COMPLEXITY>
663

> <PUBCHEM_CACTVS_HBOND_ACCEPTOR>
8

> <PUBCHEM_CACTVS_HBOND_DONOR>
2

> <PUBCHEM_CACTVS_ROTATABLE_BOND>
4

> <PUBCHEM_CACTVS_SUBSKEYS>
AAADceB7sYBAAAAAAAAAAAAAAAAAAWLAAAAsAAAAAAAAAAAB4AAAHwQQAAAADijB3hQ/kZPIEAisAzV3dACC8KlxCjkJ2DW4ZJiIYHLgkbGUIAholwLIyCcYgcAPAAAAAAAAAAAAAAAAAAAAAAAAAAAAAA==

> <PUBCHEM_IUPAC_OPENEYE_NAME>
(2S)-N1-[4-methyl-5-[2-(2,2,2-trifluoro-1,1-dimethyl-ethyl)-4-pyridyl]thiazol-2-yl]pyrrolidine-1,2-dicarboxamide

> <PUBCHEM_IUPAC_CAS_NAME>
(2S)-N1-[4-methyl-5-[2-(1,1,1-trifluoro-2-methylpropan-2-yl)-4-pyridinyl]-2-thiazolyl]pyrrolidine-1,2-dicarboxamide

> <PUBCHEM_IUPAC_NAME>
(2S)-1-N-[4-methyl-5-[2-(1,1,1-trifluoro-2-methylpropan-2-yl)pyridin-4-yl]-1,3-thiazol-2-yl]pyrrolidine-1,2-dicarboxamide

> <PUBCHEM_IUPAC_SYSTEMATIC_NAME>
(2S)-N1-[4-methyl-5-[2-[1,1,1-tris(fluoranyl)-2-methyl-propan-2-yl]pyridin-4-yl]-1,3-thiazol-2-yl]pyrrolidine-1,2-dicarboxamide

> <PUBCHEM_IUPAC_TRADITIONAL_NAME>
(2S)-N-[4-methyl-5-[2-(2,2,2-trifluoro-1,1-dimethyl-ethyl)-4-pyridyl]thiazol-2-yl]pyrrolidine-1,2-dicarboxamide

> <PUBCHEM_IUPAC_INCHI>
InChI=1S/C19H22F3N5O2S/c1-10-14(11-6-7-24-13(9-11)18(2,3)19(20,21)22)30-16(25-10)26-17(29)27-8-4-5-12(27)15(23)28/h6-7,9,12H,4-5,8H2,1-3H3,(H2,23,28)(H,25,26,29)/t12-/m0/s1

> <PUBCHEM_IUPAC_INCHIKEY>
STUWGJZDJHPWGZ-LBPRGKRZSA-N

> <PUBCHEM_XLOGP3_AA>
3.2

> <PUBCHEM_EXACT_MASS>
441.144631

> <PUBCHEM_MOLECULAR_FORMULA>
C19H22F3N5O2S

> <PUBCHEM_MOLECULAR_WEIGHT>
441.47049

> <PUBCHEM_OPENEYE_CAN_SMILES>
CC1=C(SC(=N1)NC(=O)N2CCCC2C(=O)N)C3=CC(=NC=C3)C(C)(C)C(F)(F)F

> <PUBCHEM_OPENEYE_ISO_SMILES>
CC1=C(SC(=N1)NC(=O)N2CCC[C@H]2C(=O)N)C3=CC(=NC=C3)C(C)(C)C(F)(F)F

> <PUBCHEM_CACTVS_TPSA>
129

> <PUBCHEM_MONOISOTOPIC_WEIGHT>
441.144631

> <PUBCHEM_TOTAL_CHARGE>
0

> <PUBCHEM_HEAVY_ATOM_COUNT>
30

> <PUBCHEM_ATOM_DEF_STEREO_COUNT>
1

> <PUBCHEM_ATOM_UDEF_STEREO_COUNT>
0

> <PUBCHEM_BOND_DEF_STEREO_COUNT>
0

> <PUBCHEM_BOND_UDEF_STEREO_COUNT>
0

> <PUBCHEM_ISOTOPIC_ATOM_COUNT>
0

> <PUBCHEM_COMPONENT_COUNT>
1

> <PUBCHEM_CACTVS_TAUTO_COUNT>
12

> <PUBCHEM_COORDINATE_TYPE>
1
5
255

> <PUBCHEM_BONDANNOTATIONS>
1  25  8
1  26  8
10  19  8
10  29  8
11  25  8
11  27  8
12  16  5
19  23  8
23  24  8
24  28  8
26  27  8
28  29  8

$$$$
56655374
  -OEChem-11121519512D

 72 77  0     0  0  0  0  0  0999 V2000
    3.3426   -3.3213    0.0000 Cl  0  0  0  0  0  0  0  0  0  0  0  0
    9.2136   -2.0840    0.0000 O   0  0  0  0  0  0  0  0  0  0  0  0
    9.4312    4.1572    0.0000 N   0  0  0  0  0  0  0  0  0  0  0  0
    8.4993    1.3056    0.0000 N   0  0  0  0  0  0  0  0  0  0  0  0
   10.0526    6.0582    0.0000 N   0  0  0  0  0  0  0  0  0  0  0  0
    7.2566   -2.4965    0.0000 N   0  0  0  0  0  0  0  0  0  0  0  0
    5.9674   -3.6532    0.0000 N   0  0  0  0  0  0  0  0  0  0  0  0
    5.6103   -1.9584    0.0000 N   0  0  0  0  0  0  0  0  0  0  0  0
    4.6783   -6.4194    0.0000 N   0  0  0  0  0  0  0  0  0  0  0  0
    9.1206    3.2066    0.0000 C   0  0  0  0  0  0  0  0  0  0  0  0
    9.7884    2.4623    0.0000 C   0  0  0  0  0  0  0  0  0  0  0  0
    8.1421    3.0004    0.0000 C   0  0  0  0  0  0  0  0  0  0  0  0
    9.4778    1.5118    0.0000 C   0  0  0  0  0  0  0  0  0  0  0  0
    7.8314    2.0499    0.0000 C   0  0  0  0  0  0  0  0  0  0  0  0
    8.7634    4.9015    0.0000 C   0  0  0  0  0  0  0  0  0  0  0  0
   10.4097    4.3634    0.0000 C   0  0  0  0  0  0  0  0  0  0  0  0
    9.0741    5.8520    0.0000 C   0  0  0  0  0  0  0  0  0  0  0  0
   10.7204    5.3139    0.0000 C   0  0  0  0  0  0  0  0  0  0  0  0
    8.1886    0.3551    0.0000 C   0  0  0  0  0  0  0  0  0  0  0  0
   10.3632    7.0087    0.0000 C   0  0  0  0  0  0  0  0  0  0  0  0
    8.8564   -0.3892    0.0000 C   0  0  0  0  0  0  0  0  0  0  0  0
    7.2101    0.1489    0.0000 C   0  0  0  0  0  0  0  0  0  0  0  0
    8.5458   -1.3397    0.0000 C   0  0  0  0  0  0  0  0  0  0  0  0
    6.8994   -0.8016    0.0000 C   0  0  0  0  0  0  0  0  0  0  0  0
    7.5673   -1.5460    0.0000 C   0  0  0  0  0  0  0  0  0  0  0  0
    6.2781   -2.7027    0.0000 C   0  0  0  0  0  0  0  0  0  0  0  0
   10.1921   -1.8778    0.0000 C   0  0  0  0  0  0  0  0  0  0  0  0
    4.9889   -3.8594    0.0000 C   0  0  0  0  0  0  0  0  0  0  0  0
    4.6783   -4.8100    0.0000 C   0  0  0  0  0  0  0  0  0  0  0  0
    3.7320   -5.1147    0.0000 C   0  0  0  0  0  0  0  0  0  0  0  0
    3.7320   -6.1147    0.0000 C   0  0  0  0  0  0  0  0  0  0  0  0
    5.2619   -5.6147    0.0000 C   0  0  0  0  0  0  0  0  0  0  0  0
    4.3211   -3.1151    0.0000 C   0  0  0  0  0  0  0  0  0  0  0  0
    4.6318   -2.1646    0.0000 C   0  0  0  0  0  0  0  0  0  0  0  0
    2.8660   -4.6147    0.0000 C   0  0  0  0  0  0  0  0  0  0  0  0
    2.8660   -6.6147    0.0000 C   0  0  0  0  0  0  0  0  0  0  0  0
    2.0000   -5.1147    0.0000 C   0  0  0  0  0  0  0  0  0  0  0  0
    2.0000   -6.1147    0.0000 C   0  0  0  0  0  0  0  0  0  0  0  0
    8.7065    3.6681    0.0000 H   0  0  0  0  0  0  0  0  0  0  0  0
    8.1215    3.6201    0.0000 H   0  0  0  0  0  0  0  0  0  0  0  0
    7.5283    3.0878    0.0000 H   0  0  0  0  0  0  0  0  0  0  0  0
   10.3353    2.1703    0.0000 H   0  0  0  0  0  0  0  0  0  0  0  0
   10.1710    2.9503    0.0000 H   0  0  0  0  0  0  0  0  0  0  0  0
    7.2845    2.3419    0.0000 H   0  0  0  0  0  0  0  0  0  0  0  0
    7.4489    1.5620    0.0000 H   0  0  0  0  0  0  0  0  0  0  0  0
    9.4983    0.8922    0.0000 H   0  0  0  0  0  0  0  0  0  0  0  0
   10.0916    1.4245    0.0000 H   0  0  0  0  0  0  0  0  0  0  0  0
   10.4303    3.7437    0.0000 H   0  0  0  0  0  0  0  0  0  0  0  0
   11.0236    4.2760    0.0000 H   0  0  0  0  0  0  0  0  0  0  0  0
    8.2165    5.1935    0.0000 H   0  0  0  0  0  0  0  0  0  0  0  0
    8.3808    4.4136    0.0000 H   0  0  0  0  0  0  0  0  0  0  0  0
   11.2673    5.0219    0.0000 H   0  0  0  0  0  0  0  0  0  0  0  0
   11.1030    5.8018    0.0000 H   0  0  0  0  0  0  0  0  0  0  0  0
    9.0535    6.4716    0.0000 H   0  0  0  0  0  0  0  0  0  0  0  0
    8.4602    5.9393    0.0000 H   0  0  0  0  0  0  0  0  0  0  0  0
   10.9526    6.8161    0.0000 H   0  0  0  0  0  0  0  0  0  0  0  0
   10.5558    7.5981    0.0000 H   0  0  0  0  0  0  0  0  0  0  0  0
    9.7739    7.2013    0.0000 H   0  0  0  0  0  0  0  0  0  0  0  0
    9.4631   -0.2614    0.0000 H   0  0  0  0  0  0  0  0  0  0  0  0
    6.7960    0.6103    0.0000 H   0  0  0  0  0  0  0  0  0  0  0  0
    6.2928   -0.9295    0.0000 H   0  0  0  0  0  0  0  0  0  0  0  0
    7.6707   -2.9579    0.0000 H   0  0  0  0  0  0  0  0  0  0  0  0
   10.3200   -2.4845    0.0000 H   0  0  0  0  0  0  0  0  0  0  0  0
   10.7988   -1.7500    0.0000 H   0  0  0  0  0  0  0  0  0  0  0  0
   10.0643   -1.2711    0.0000 H   0  0  0  0  0  0  0  0  0  0  0  0
    5.8819   -5.6147    0.0000 H   0  0  0  0  0  0  0  0  0  0  0  0
    4.8709   -7.0087    0.0000 H   0  0  0  0  0  0  0  0  0  0  0  0
    4.2177   -1.7031    0.0000 H   0  0  0  0  0  0  0  0  0  0  0  0
    2.8660   -3.9947    0.0000 H   0  0  0  0  0  0  0  0  0  0  0  0
    2.8660   -7.2347    0.0000 H   0  0  0  0  0  0  0  0  0  0  0  0
    1.4631   -4.8047    0.0000 H   0  0  0  0  0  0  0  0  0  0  0  0
    1.4631   -6.4247    0.0000 H   0  0  0  0  0  0  0  0  0  0  0  0
  1 33  1  0  0  0  0
  2 23  1  0  0  0  0
  2 27  1  0  0  0  0
  3 10  1  0  0  0  0
  3 15  1  0  0  0  0
  3 16  1  0  0  0  0
  4 13  1  0  0  0  0
  4 14  1  0  0  0  0
  4 19  1  0  0  0  0
  5 17  1  0  0  0  0
  5 18  1  0  0  0  0
  5 20  1  0  0  0  0
  6 25  1  0  0  0  0
  6 26  1  0  0  0  0
  6 62  1  0  0  0  0
  7 26  1  0  0  0  0
  7 28  2  0  0  0  0
  8 26  2  0  0  0  0
  8 34  1  0  0  0  0
  9 31  1  0  0  0  0
  9 32  1  0  0  0  0
  9 67  1  0  0  0  0
 10 11  1  0  0  0  0
 10 12  1  0  0  0  0
 10 39  1  0  0  0  0
 11 13  1  0  0  0  0
 11 42  1  0  0  0  0
 11 43  1  0  0  0  0
 12 14  1  0  0  0  0
 12 40  1  0  0  0  0
 12 41  1  0  0  0  0
 13 46  1  0  0  0  0
 13 47  1  0  0  0  0
 14 44  1  0  0  0  0
 14 45  1  0  0  0  0
 15 17  1  0  0  0  0
 15 50  1  0  0  0  0
 15 51  1  0  0  0  0
 16 18  1  0  0  0  0
 16 48  1  0  0  0  0
 16 49  1  0  0  0  0
 17 54  1  0  0  0  0
 17 55  1  0  0  0  0
 18 52  1  0  0  0  0
 18 53  1  0  0  0  0
 19 21  2  0  0  0  0
 19 22  1  0  0  0  0
 20 56  1  0  0  0  0
 20 57  1  0  0  0  0
 20 58  1  0  0  0  0
 21 23  1  0  0  0  0
 21 59  1  0  0  0  0
 22 24  2  0  0  0  0
 22 60  1  0  0  0  0
 23 25  2  0  0  0  0
 24 25  1  0  0  0  0
 24 61  1  0  0  0  0
 27 63  1  0  0  0  0
 27 64  1  0  0  0  0
 27 65  1  0  0  0  0
 28 29  1  0  0  0  0
 28 33  1  0  0  0  0
 29 30  1  0  0  0  0
 29 32  2  0  0  0  0
 30 31  1  0  0  0  0
 30 35  2  0  0  0  0
 31 36  2  0  0  0  0
 32 66  1  0  0  0  0
 33 34  2  0  0  0  0
 34 68  1  0  0  0  0
 35 37  1  0  0  0  0
 35 69  1  0  0  0  0
 36 38  1  0  0  0  0
 36 70  1  0  0  0  0
 37 38  2  0  0  0  0
 37 71  1  0  0  0  0
 38 72  1  0  0  0  0
M  END
> <PUBCHEM_COMPOUND_CID>
56655374

> <PUBCHEM_COMPOUND_CANONICALIZED>
1

> <PUBCHEM_CACTVS_COMPLEXITY>
746

> <PUBCHEM_CACTVS_HBOND_ACCEPTOR>
7

> <PUBCHEM_CACTVS_HBOND_DONOR>
2

> <PUBCHEM_CACTVS_ROTATABLE_BOND>
6

> <PUBCHEM_CACTVS_SUBSKEYS>
AAADcfB7oAAEAAAAAAAAAAAAAAAAAWAAAAA8eLECAAAAAFgB/AAAHgIQAAAADC7BniY/1vfJlACgAzRnZACCiCkxJ6AJ2aA/bpiObuLF+dvVNChu0BvY6CeQ0MMOgACAAgACEAAAAQAEAAQgAAAAAAAAAA==

> <PUBCHEM_IUPAC_OPENEYE_NAME>
5-chloro-4-(1H-indol-3-yl)-N-[2-methoxy-4-[4-(4-methylpiperazin-1-yl)-1-piperidyl]phenyl]pyrimidin-2-amine

> <PUBCHEM_IUPAC_CAS_NAME>
5-chloro-4-(1H-indol-3-yl)-N-[2-methoxy-4-[4-(4-methyl-1-piperazinyl)-1-piperidinyl]phenyl]-2-pyrimidinamine

> <PUBCHEM_IUPAC_NAME>
5-chloro-4-(1H-indol-3-yl)-N-[2-methoxy-4-[4-(4-methylpiperazin-1-yl)piperidin-1-yl]phenyl]pyrimidin-2-amine

> <PUBCHEM_IUPAC_SYSTEMATIC_NAME>
5-chloranyl-4-(1H-indol-3-yl)-N-[2-methoxy-4-[4-(4-methylpiperazin-1-yl)piperidin-1-yl]phenyl]pyrimidin-2-amine

> <PUBCHEM_IUPAC_TRADITIONAL_NAME>
[5-chloro-4-(1H-indol-3-yl)pyrimidin-2-yl]-[2-methoxy-4-[4-(4-methylpiperazino)piperidino]phenyl]amine

> <PUBCHEM_IUPAC_INCHI>
InChI=1S/C29H34ClN7O/c1-35-13-15-37(16-14-35)20-9-11-36(12-10-20)21-7-8-26(27(17-21)38-2)33-29-32-19-24(30)28(34-29)23-18-31-25-6-4-3-5-22(23)25/h3-8,17-20,31H,9-16H2,1-2H3,(H,32,33,34)

> <PUBCHEM_IUPAC_INCHIKEY>
HRYNCLKDKCPYBF-UHFFFAOYSA-N

> <PUBCHEM_XLOGP3_AA>
5

> <PUBCHEM_EXACT_MASS>
531.251336

> <PUBCHEM_MOLECULAR_FORMULA>
C29H34ClN7O

> <PUBCHEM_MOLECULAR_WEIGHT>
532.07956

> <PUBCHEM_OPENEYE_CAN_SMILES>
CN1CCN(CC1)C2CCN(CC2)C3=CC(=C(C=C3)NC4=NC=C(C(=N4)C5=CNC6=CC=CC=C65)Cl)OC

> <PUBCHEM_OPENEYE_ISO_SMILES>
CN1CCN(CC1)C2CCN(CC2)C3=CC(=C(C=C3)NC4=NC=C(C(=N4)C5=CNC6=CC=CC=C65)Cl)OC

> <PUBCHEM_CACTVS_TPSA>
72.6

> <PUBCHEM_MONOISOTOPIC_WEIGHT>
531.251336

> <PUBCHEM_TOTAL_CHARGE>
0

> <PUBCHEM_HEAVY_ATOM_COUNT>
38

> <PUBCHEM_ATOM_DEF_STEREO_COUNT>
0

> <PUBCHEM_ATOM_UDEF_STEREO_COUNT>
0

> <PUBCHEM_BOND_DEF_STEREO_COUNT>
0

> <PUBCHEM_BOND_UDEF_STEREO_COUNT>
0

> <PUBCHEM_ISOTOPIC_ATOM_COUNT>
0

> <PUBCHEM_COMPONENT_COUNT>
1

> <PUBCHEM_CACTVS_TAUTO_COUNT>
9

> <PUBCHEM_COORDINATE_TYPE>
1
5
255

> <PUBCHEM_BONDANNOTATIONS>
19  21  8
19  22  8
21  23  8
22  24  8
23  25  8
24  25  8
28  33  8
29  30  8
29  32  8
30  31  8
30  35  8
31  36  8
33  34  8
35  37  8
36  38  8
37  38  8
7  26  8
7  28  8
8  26  8
8  34  8
9  31  8
9  32  8

$$$$
56842117
  -OEChem-11121519512D

150158  0     1  0  0  0  0  0999 V2000
   21.5493    2.6200    0.0000 F   0  0  0  0  0  0  0  0  0  0  0  0
   19.1306   12.1387    0.0000 O   0  0  0  0  0  0  0  0  0  0  0  0
   20.7095   11.4268    0.0000 O   0  0  0  0  0  0  0  0  0  0  0  0
   21.2848   21.3324    0.0000 O   0  0  0  0  0  0  0  0  0  0  0  0
   23.1788   19.7584    0.0000 O   0  0  0  0  0  0  0  0  0  0  0  0
   18.6708   19.7631    0.0000 O   0  0  0  0  0  0  0  0  0  0  0  0
   23.0548   21.3082    0.0000 O   0  0  0  0  0  0  0  0  0  0  0  0
   11.8116   10.8906    0.0000 O   0  0  0  0  0  0  0  0  0  0  0  0
    9.1972   10.4252    0.0000 O   0  0  0  0  0  0  0  0  0  0  0  0
    4.0010    9.4252    0.0000 O   0  0  0  0  0  0  0  0  0  0  0  0
    0.5369   10.4252    0.0000 O   0  0  0  0  0  0  0  0  0  0  0  0
    1.4030   11.9252    0.0000 O   0  0  0  0  0  0  0  0  0  0  0  0
    0.5369    7.4252    0.0000 O   0  0  0  0  0  0  0  0  0  0  0  0
    2.2690    7.4252    0.0000 O   0  0  0  0  0  0  0  0  0  0  0  0
   18.0852    0.6200    0.0000 O   0  0  0  0  0  0  0  0  0  0  0  0
   21.5493    0.6200    0.0000 O   0  0  0  0  0  0  0  0  0  0  0  0
   18.0704    7.6805    0.0000 N   0  0  0  0  0  0  0  0  0  0  0  0
   19.3035   10.4153    0.0000 N   0  0  0  0  0  0  0  0  0  0  0  0
   19.5368   18.2631    0.0000 N   0  0  0  0  0  0  0  0  0  0  0  0
   20.8144   15.9625    0.0000 N   0  0  0  0  0  0  0  0  0  0  0  0
   10.0632   11.9252    0.0000 N   0  0  0  0  0  0  0  0  0  0  0  0
   10.0632   13.9252    0.0000 N   0  0  0  0  0  0  0  0  0  0  0  0
    7.4651   12.4252    0.0000 N   0  0  0  0  0  0  0  0  0  0  0  0
   11.8232   13.9599    0.0000 N   0  0  0  0  0  0  0  0  0  0  0  0
   12.7292   12.4044    0.0000 N   0  0  0  0  0  0  0  0  0  0  0  0
   13.5933   13.9494    0.0000 N   0  0  0  0  0  0  0  0  0  0  0  0
    3.1350   10.9252    0.0000 N   0  0  0  0  0  0  0  0  0  0  0  0
   19.8173    0.6200    0.0000 N   0  0  0  0  0  0  0  0  0  0  0  0
   18.9512    2.1200    0.0000 N   0  0  0  0  0  0  0  0  0  0  0  0
   18.4814    8.5921    0.0000 C   0  0  0  0  0  0  0  0  0  0  0  0
   17.8974    9.4039    0.0000 C   0  0  0  0  0  0  0  0  0  0  0  0
   19.4764    8.6920    0.0000 C   0  0  0  0  0  0  0  0  0  0  0  0
   17.0754    7.5807    0.0000 C   0  0  0  0  0  0  0  0  0  0  0  0
   18.6543    6.8687    0.0000 C   0  0  0  0  0  0  0  0  0  0  0  0
   18.3085   10.3155    0.0000 C   0  0  0  0  0  0  0  0  0  0  0  0
   19.8875    9.6036    0.0000 C   0  0  0  0  0  0  0  0  0  0  0  0
   18.2433    5.9571    0.0000 C   0  0  0  0  0  0  0  0  0  0  0  0
   16.6643    6.6690    0.0000 C   0  0  0  0  0  0  0  0  0  0  0  0
   17.2483    5.8573    0.0000 C   0  0  0  0  0  0  0  0  0  0  0  0
   19.7145   11.3270    0.0000 C   0  0  0  0  0  0  0  0  0  0  0  0
   19.2049   16.6882    0.0000 C   0  0  0  0  0  0  0  0  0  0  0  0
   18.7998   17.5960    0.0000 C   0  0  0  0  0  0  0  0  0  0  0  0
   20.4028   17.7631    0.0000 C   0  0  0  0  0  0  0  0  0  0  0  0
   20.1936   16.7913    0.0000 C   0  0  0  0  0  0  0  0  0  0  0  0
   19.5416   13.0504    0.0000 C   0  0  0  0  0  0  0  0  0  0  0  0
   21.2689   19.2631    0.0000 C   0  0  0  0  0  0  0  0  0  0  0  0
   18.7684   15.7493    0.0000 C   0  0  0  0  0  0  0  0  0  0  0  0
   22.1789   19.7700    0.0000 C   0  0  2  0  0  0  0  0  0  0  0  0
   19.3698   14.9064    0.0000 C   0  0  0  0  0  0  0  0  0  0  0  0
   20.4028   19.7631    0.0000 C   0  0  0  0  0  0  0  0  0  0  0  0
   21.2689   18.2631    0.0000 C   0  0  0  0  0  0  0  0  0  0  0  0
   19.5368   19.2631    0.0000 C   0  0  0  0  0  0  0  0  0  0  0  0
   18.9152   13.9283    0.0000 C   0  0  0  0  0  0  0  0  0  0  0  0
   20.3997   15.0137    0.0000 C   0  0  0  0  0  0  0  0  0  0  0  0
   17.7727   15.6571    0.0000 C   0  0  0  0  0  0  0  0  0  0  0  0
   22.6688   18.8982    0.0000 C   0  0  0  0  0  0  0  0  0  0  0  0
   20.3868   20.8046    0.0000 C   0  0  0  0  0  0  0  0  0  0  0  0
   20.6144   13.1622    0.0000 C   0  0  0  0  0  0  0  0  0  0  0  0
   21.0463   14.1505    0.0000 C   0  0  0  0  0  0  0  0  0  0  0  0
   22.1869   20.8116    0.0000 C   0  0  0  0  0  0  0  0  0  0  0  0
   17.3546   14.7487    0.0000 C   0  0  0  0  0  0  0  0  0  0  0  0
   22.1588   18.0380    0.0000 C   0  0  0  0  0  0  0  0  0  0  0  0
    9.1972   12.4252    0.0000 C   0  0  3  0  0  0  0  0  0  0  0  0
    9.1972   13.4252    0.0000 C   0  0  0  0  0  0  0  0  0  0  0  0
    8.3312   11.9252    0.0000 C   0  0  0  0  0  0  0  0  0  0  0  0
   10.9292   12.4252    0.0000 C   0  0  0  0  0  0  0  0  0  0  0  0
   10.9292   13.4252    0.0000 C   0  0  0  0  0  0  0  0  0  0  0  0
   11.8232   11.8905    0.0000 C   0  0  0  0  0  0  0  0  0  0  0  0
   10.0632   10.9252    0.0000 C   0  0  0  0  0  0  0  0  0  0  0  0
    6.5991   11.9252    0.0000 C   0  0  0  0  0  0  0  0  0  0  0  0
   12.7292   13.4460    0.0000 C   0  0  0  0  0  0  0  0  0  0  0  0
    5.7331   12.4252    0.0000 C   0  0  0  0  0  0  0  0  0  0  0  0
    6.5991   10.9252    0.0000 C   0  0  0  0  0  0  0  0  0  0  0  0
    4.8671   11.9252    0.0000 C   0  0  0  0  0  0  0  0  0  0  0  0
    5.7331   10.4252    0.0000 C   0  0  0  0  0  0  0  0  0  0  0  0
    4.8671   10.9252    0.0000 C   0  0  0  0  0  0  0  0  0  0  0  0
    4.0010   10.4252    0.0000 C   0  0  0  0  0  0  0  0  0  0  0  0
    2.2690   10.4252    0.0000 C   0  0  1  0  0  0  0  0  0  0  0  0
    2.2690    9.4252    0.0000 C   0  0  0  0  0  0  0  0  0  0  0  0
    1.4030    8.9252    0.0000 C   0  0  0  0  0  0  0  0  0  0  0  0
    1.4030   10.9252    0.0000 C   0  0  0  0  0  0  0  0  0  0  0  0
    1.4030    7.9252    0.0000 C   0  0  0  0  0  0  0  0  0  0  0  0
   20.6833    2.1200    0.0000 C   0  0  0  0  0  0  0  0  0  0  0  0
   18.9512    1.1200    0.0000 C   0  0  0  0  0  0  0  0  0  0  0  0
   20.6833    1.1200    0.0000 C   0  0  0  0  0  0  0  0  0  0  0  0
   19.8173    2.6200    0.0000 C   0  0  0  0  0  0  0  0  0  0  0  0
   18.8435    8.0888    0.0000 H   0  0  0  0  0  0  0  0  0  0  0  0
   17.3851    9.7530    0.0000 H   0  0  0  0  0  0  0  0  0  0  0  0
   17.4647    8.9599    0.0000 H   0  0  0  0  0  0  0  0  0  0  0  0
   19.4302    8.0737    0.0000 H   0  0  0  0  0  0  0  0  0  0  0  0
   20.0773    8.5391    0.0000 H   0  0  0  0  0  0  0  0  0  0  0  0
   17.1215    8.1989    0.0000 H   0  0  0  0  0  0  0  0  0  0  0  0
   16.4745    7.7335    0.0000 H   0  0  0  0  0  0  0  0  0  0  0  0
   19.1667    6.5196    0.0000 H   0  0  0  0  0  0  0  0  0  0  0  0
   19.0871    7.3127    0.0000 H   0  0  0  0  0  0  0  0  0  0  0  0
   20.3998    9.2544    0.0000 H   0  0  0  0  0  0  0  0  0  0  0  0
   20.3202   10.0475    0.0000 H   0  0  0  0  0  0  0  0  0  0  0  0
   18.3547   10.9338    0.0000 H   0  0  0  0  0  0  0  0  0  0  0  0
   17.7076   10.4683    0.0000 H   0  0  0  0  0  0  0  0  0  0  0  0
   18.1971    5.3388    0.0000 H   0  0  0  0  0  0  0  0  0  0  0  0
   18.8441    5.8043    0.0000 H   0  0  0  0  0  0  0  0  0  0  0  0
   16.1520    7.0182    0.0000 H   0  0  0  0  0  0  0  0  0  0  0  0
   16.2315    6.2251    0.0000 H   0  0  0  0  0  0  0  0  0  0  0  0
   16.6897    5.5881    0.0000 H   0  0  0  0  0  0  0  0  0  0  0  0
   17.4164    5.2605    0.0000 H   0  0  0  0  0  0  0  0  0  0  0  0
   18.4344   18.0969    0.0000 H   0  0  0  0  0  0  0  0  0  0  0  0
   18.2633   17.2853    0.0000 H   0  0  0  0  0  0  0  0  0  0  0  0
   21.8058   17.9531    0.0000 H   0  0  0  0  0  0  0  0  0  0  0  0
   18.2978   13.8712    0.0000 H   0  0  0  0  0  0  0  0  0  0  0  0
   17.8236   16.2750    0.0000 H   0  0  0  0  0  0  0  0  0  0  0  0
   17.1730   15.8146    0.0000 H   0  0  0  0  0  0  0  0  0  0  0  0
   23.1391   18.4942    0.0000 H   0  0  0  0  0  0  0  0  0  0  0  0
   23.1483   19.2912    0.0000 H   0  0  0  0  0  0  0  0  0  0  0  0
   20.1688   21.3850    0.0000 H   0  0  0  0  0  0  0  0  0  0  0  0
   19.7776   20.6891    0.0000 H   0  0  0  0  0  0  0  0  0  0  0  0
   20.9803   12.6617    0.0000 H   0  0  0  0  0  0  0  0  0  0  0  0
   21.6622   14.2219    0.0000 H   0  0  0  0  0  0  0  0  0  0  0  0
   21.6255   18.3542    0.0000 H   0  0  0  0  0  0  0  0  0  0  0  0
   21.8427   17.5047    0.0000 H   0  0  0  0  0  0  0  0  0  0  0  0
   22.6922   17.7218    0.0000 H   0  0  0  0  0  0  0  0  0  0  0  0
   16.7914   15.0079    0.0000 H   0  0  0  0  0  0  0  0  0  0  0  0
   17.0954   14.1855    0.0000 H   0  0  0  0  0  0  0  0  0  0  0  0
   17.9178   14.4895    0.0000 H   0  0  0  0  0  0  0  0  0  0  0  0
   23.4826   19.2179    0.0000 H   0  0  0  0  0  0  0  0  0  0  0  0
    9.1972   11.8052    0.0000 H   0  0  0  0  0  0  0  0  0  0  0  0
    8.9851   14.0078    0.0000 H   0  0  0  0  0  0  0  0  0  0  0  0
    8.5866   13.3175    0.0000 H   0  0  0  0  0  0  0  0  0  0  0  0
    7.9326   11.4503    0.0000 H   0  0  0  0  0  0  0  0  0  0  0  0
    8.7297   11.4503    0.0000 H   0  0  0  0  0  0  0  0  0  0  0  0
   10.0632   14.5452    0.0000 H   0  0  0  0  0  0  0  0  0  0  0  0
    7.4651   13.0452    0.0000 H   0  0  0  0  0  0  0  0  0  0  0  0
   11.8160   14.5798    0.0000 H   0  0  0  0  0  0  0  0  0  0  0  0
   10.6002   10.6152    0.0000 H   0  0  0  0  0  0  0  0  0  0  0  0
    5.7331   13.0452    0.0000 H   0  0  0  0  0  0  0  0  0  0  0  0
    7.1360   10.6152    0.0000 H   0  0  0  0  0  0  0  0  0  0  0  0
   14.1315   13.6414    0.0000 H   0  0  0  0  0  0  0  0  0  0  0  0
   13.5910   14.5693    0.0000 H   0  0  0  0  0  0  0  0  0  0  0  0
    4.3301   12.2352    0.0000 H   0  0  0  0  0  0  0  0  0  0  0  0
    5.7331    9.8052    0.0000 H   0  0  0  0  0  0  0  0  0  0  0  0
    2.2690   11.0452    0.0000 H   0  0  0  0  0  0  0  0  0  0  0  0
    3.1350   11.5452    0.0000 H   0  0  0  0  0  0  0  0  0  0  0  0
    2.4810    8.8426    0.0000 H   0  0  0  0  0  0  0  0  0  0  0  0
    2.8796    9.5329    0.0000 H   0  0  0  0  0  0  0  0  0  0  0  0
    1.1909    9.5078    0.0000 H   0  0  0  0  0  0  0  0  0  0  0  0
    0.7924    8.8175    0.0000 H   0  0  0  0  0  0  0  0  0  0  0  0
    0.0000   10.7352    0.0000 H   0  0  0  0  0  0  0  0  0  0  0  0
    0.5369    6.8052    0.0000 H   0  0  0  0  0  0  0  0  0  0  0  0
   19.8173    0.0000    0.0000 H   0  0  0  0  0  0  0  0  0  0  0  0
   18.4143    2.4300    0.0000 H   0  0  0  0  0  0  0  0  0  0  0  0
   19.8173    3.2400    0.0000 H   0  0  0  0  0  0  0  0  0  0  0  0
  1 83  1  0  0  0  0
  2 40  1  0  0  0  0
  2 45  1  0  0  0  0
  3 40  2  0  0  0  0
  4 57  1  0  0  0  0
  4 60  1  0  0  0  0
 48  5  1  1  0  0  0
  5124  1  0  0  0  0
  6 52  2  0  0  0  0
  7 60  2  0  0  0  0
  8 68  2  0  0  0  0
  9 69  2  0  0  0  0
 10 77  2  0  0  0  0
 11 81  1  0  0  0  0
 11146  1  0  0  0  0
 12 81  2  0  0  0  0
 13 82  1  0  0  0  0
 13147  1  0  0  0  0
 14 82  2  0  0  0  0
 15 84  2  0  0  0  0
 16 85  2  0  0  0  0
 17 30  1  0  0  0  0
 17 33  1  0  0  0  0
 17 34  1  0  0  0  0
 18 35  1  0  0  0  0
 18 36  1  0  0  0  0
 18 40  1  0  0  0  0
 19 42  1  0  0  0  0
 19 43  1  0  0  0  0
 19 52  1  0  0  0  0
 20 44  2  0  0  0  0
 20 54  1  0  0  0  0
 21 63  1  0  0  0  0
 21 66  1  0  0  0  0
 21 69  1  0  0  0  0
 22 64  1  0  0  0  0
 22 67  1  0  0  0  0
 22130  1  0  0  0  0
 23 65  1  0  0  0  0
 23 70  1  0  0  0  0
 23131  1  0  0  0  0
 24 67  1  0  0  0  0
 24 71  1  0  0  0  0
 24132  1  0  0  0  0
 25 68  1  0  0  0  0
 25 71  2  0  0  0  0
 26 71  1  0  0  0  0
 26136  1  0  0  0  0
 26137  1  0  0  0  0
 27 77  1  0  0  0  0
 78 27  1  1  0  0  0
 27141  1  0  0  0  0
 28 84  1  0  0  0  0
 28 85  1  0  0  0  0
 28148  1  0  0  0  0
 29 84  1  0  0  0  0
 29 86  1  0  0  0  0
 29149  1  0  0  0  0
 30 31  1  0  0  0  0
 30 32  1  0  0  0  0
 30 87  1  0  0  0  0
 31 35  1  0  0  0  0
 31 88  1  0  0  0  0
 31 89  1  0  0  0  0
 32 36  1  0  0  0  0
 32 90  1  0  0  0  0
 32 91  1  0  0  0  0
 33 38  1  0  0  0  0
 33 92  1  0  0  0  0
 33 93  1  0  0  0  0
 34 37  1  0  0  0  0
 34 94  1  0  0  0  0
 34 95  1  0  0  0  0
 35 98  1  0  0  0  0
 35 99  1  0  0  0  0
 36 96  1  0  0  0  0
 36 97  1  0  0  0  0
 37 39  1  0  0  0  0
 37100  1  0  0  0  0
 37101  1  0  0  0  0
 38 39  1  0  0  0  0
 38102  1  0  0  0  0
 38103  1  0  0  0  0
 39104  1  0  0  0  0
 39105  1  0  0  0  0
 41 42  1  0  0  0  0
 41 44  1  0  0  0  0
 41 47  2  0  0  0  0
 42106  1  0  0  0  0
 42107  1  0  0  0  0
 43 44  1  0  0  0  0
 43 51  2  0  0  0  0
 45 53  2  0  0  0  0
 45 58  1  0  0  0  0
 46 48  1  0  0  0  0
 46 50  2  0  0  0  0
 46 51  1  0  0  0  0
 47 49  1  0  0  0  0
 47 55  1  0  0  0  0
 48 56  1  0  0  0  0
 48 60  1  0  0  0  0
 49 53  1  0  0  0  0
 49 54  2  0  0  0  0
 50 52  1  0  0  0  0
 50 57  1  0  0  0  0
 51108  1  0  0  0  0
 53109  1  0  0  0  0
 54 59  1  0  0  0  0
 55 61  1  0  0  0  0
 55110  1  0  0  0  0
 55111  1  0  0  0  0
 56 62  1  0  0  0  0
 56112  1  0  0  0  0
 56113  1  0  0  0  0
 57114  1  0  0  0  0
 57115  1  0  0  0  0
 58 59  2  0  0  0  0
 58116  1  0  0  0  0
 59117  1  0  0  0  0
 61121  1  0  0  0  0
 61122  1  0  0  0  0
 61123  1  0  0  0  0
 62118  1  0  0  0  0
 62119  1  0  0  0  0
 62120  1  0  0  0  0
 63 64  1  0  0  0  0
 63 65  1  0  0  0  0
 63125  1  0  0  0  0
 64126  1  0  0  0  0
 64127  1  0  0  0  0
 65128  1  0  0  0  0
 65129  1  0  0  0  0
 66 67  2  0  0  0  0
 66 68  1  0  0  0  0
 69133  1  0  0  0  0
 70 72  2  0  0  0  0
 70 73  1  0  0  0  0
 72 74  1  0  0  0  0
 72134  1  0  0  0  0
 73 75  2  0  0  0  0
 73135  1  0  0  0  0
 74 76  2  0  0  0  0
 74138  1  0  0  0  0
 75 76  1  0  0  0  0
 75139  1  0  0  0  0
 76 77  1  0  0  0  0
 78 79  1  0  0  0  0
 78 81  1  0  0  0  0
 78140  1  0  0  0  0
 79 80  1  0  0  0  0
 79142  1  0  0  0  0
 79143  1  0  0  0  0
 80 82  1  0  0  0  0
 80144  1  0  0  0  0
 80145  1  0  0  0  0
 83 85  1  0  0  0  0
 83 86  2  0  0  0  0
 86150  1  0  0  0  0
M  END
> <PUBCHEM_COMPOUND_CID>
56842117

> <PUBCHEM_COMPOUND_CANONICALIZED>
1

> <PUBCHEM_CACTVS_COMPLEXITY>
2310

> <PUBCHEM_CACTVS_HBOND_ACCEPTOR>
20

> <PUBCHEM_CACTVS_HBOND_DONOR>
10

> <PUBCHEM_CACTVS_ROTATABLE_BOND>
14

> <PUBCHEM_CACTVS_SUBSKEYS>
AAADcfB//QAAAAAAAAAAAAAAAAAAAWAAAAA8eLECAAAAAFix9AAAHwAQCAAADGzhngYzzvPIFgCoAyX2/AKCiCElIiAJmKH+bNiPZvbE9buecyhu9zPb+ce87/CeiEABAAACAAAQgAIAAAQAAAAAAAAAAA==

> <PUBCHEM_IUPAC_INCHI>
InChI=1S/C33H38N4O6.C20H23N7O7.C4H3FN2O2/c1-3-22-23-16-21(43-32(40)36-14-10-20(11-15-36)35-12-6-5-7-13-35)8-9-27(23)34-29-24(22)18-37-28(29)17-26-25(30(37)38)19-42-31(39)33(26,41)4-2;21-20-25-16-15(18(32)26-20)27(9-28)12(8-23-16)7-22-11-3-1-10(2-4-11)17(31)24-13(19(33)34)5-6-14(29)30;5-2-1-6-4(9)7-3(2)8/h8-9,16-17,20,41H,3-7,10-15,18-19H2,1-2H3;1-4,9,12-13,22H,5-8H2,(H,24,31)(H,29,30)(H,33,34)(H4,21,23,25,26,32);1H,(H2,6,7,8,9)/t33-;12?,13-;/m00./s1

> <PUBCHEM_IUPAC_INCHIKEY>
JYEFSHLLTQIXIO-SMNQTINBSA-N

> <PUBCHEM_EXACT_MASS>
1189.462887

> <PUBCHEM_MOLECULAR_FORMULA>
C57H64FN13O15

> <PUBCHEM_MOLECULAR_WEIGHT>
1190.194563

> <PUBCHEM_OPENEYE_CAN_SMILES>
CCC1=C2C=C(C=CC2=NC3=C1CN4C3=CC5=C(C4=O)COC(=O)C5(CC)O)OC(=O)N6CCC(CC6)N7CCCCC7.C1C(N(C2=C(N1)NC(=NC2=O)N)C=O)CNC3=CC=C(C=C3)C(=O)NC(CCC(=O)O)C(=O)O.C1=C(C(=O)NC(=O)N1)F

> <PUBCHEM_OPENEYE_ISO_SMILES>
CCC1=C2C=C(C=CC2=NC3=C1CN4C3=CC5=C(C4=O)COC(=O)[C@@]5(CC)O)OC(=O)N6CCC(CC6)N7CCCCC7.C1C(N(C2=C(N1)NC(=NC2=O)N)C=O)CNC3=CC=C(C=C3)C(=O)N[C@@H](CCC(=O)O)C(=O)O.C1=C(C(=O)NC(=O)N1)F

> <PUBCHEM_CACTVS_TPSA>
386

> <PUBCHEM_MONOISOTOPIC_WEIGHT>
1189.462887

> <PUBCHEM_TOTAL_CHARGE>
0

> <PUBCHEM_HEAVY_ATOM_COUNT>
86

> <PUBCHEM_ATOM_DEF_STEREO_COUNT>
2

> <PUBCHEM_ATOM_UDEF_STEREO_COUNT>
1

> <PUBCHEM_BOND_DEF_STEREO_COUNT>
0

> <PUBCHEM_BOND_UDEF_STEREO_COUNT>
0

> <PUBCHEM_ISOTOPIC_ATOM_COUNT>
0

> <PUBCHEM_COMPONENT_COUNT>
3

> <PUBCHEM_CACTVS_TAUTO_COUNT>
765

> <PUBCHEM_COORDINATE_TYPE>
1
5
255

> <PUBCHEM_BONDANNOTATIONS>
19  43  8
19  52  8
20  44  8
20  54  8
24  67  8
24  71  8
25  68  8
25  71  8
78  27  5
28  84  8
28  85  8
29  84  8
29  86  8
41  44  8
41  47  8
43  51  8
45  53  8
45  58  8
46  50  8
46  51  8
47  49  8
49  53  8
49  54  8
48  5  5
50  52  8
54  59  8
58  59  8
63  65  3
66  67  8
66  68  8
70  72  8
70  73  8
72  74  8
73  75  8
74  76  8
75  76  8
83  85  8
83  86  8

$$$$
56842121
  -OEChem-11121519512D

100100  0     1  0  0  0  0  0999 V2000
   12.5442    2.3479    0.0000 Pt  0  2  0  0  0  0  0  0  0  0  0  0
    3.4641    9.0433    0.0000 F   0  0  0  0  0  0  0  0  0  0  0  0
   13.3532    1.7601    0.0000 O   0  0  0  0  0  0  0  0  0  0  0  0
   11.7352    1.7601    0.0000 O   0  0  0  0  0  0  0  0  0  0  0  0
   11.4564    0.0000    0.0000 O   0  0  0  0  0  0  0  0  0  0  0  0
   13.6320    0.0000    0.0000 O   0  0  0  0  0  0  0  0  0  0  0  0
   17.2901   12.3973    0.0000 O   0  0  0  0  0  0  0  0  0  0  0  0
   14.6756   11.9319    0.0000 O   0  0  0  0  0  0  0  0  0  0  0  0
    9.4795   10.9319    0.0000 O   0  0  0  0  0  0  0  0  0  0  0  0
    6.0154   11.9319    0.0000 O   0  0  0  0  0  0  0  0  0  0  0  0
    6.8814   13.4319    0.0000 O   0  0  0  0  0  0  0  0  0  0  0  0
    6.0154    8.9319    0.0000 O   0  0  0  0  0  0  0  0  0  0  0  0
    7.7474    8.9319    0.0000 O   0  0  0  0  0  0  0  0  0  0  0  0
    0.0000    7.0433    0.0000 O   0  0  0  0  0  0  0  0  0  0  0  0
    3.4641    7.0433    0.0000 O   0  0  0  0  0  0  0  0  0  0  0  0
   15.5417   13.4319    0.0000 N   0  0  0  0  0  0  0  0  0  0  0  0
   15.5417   15.4319    0.0000 N   0  0  0  0  0  0  0  0  0  0  0  0
   12.9436   13.9319    0.0000 N   0  0  0  0  0  0  0  0  0  0  0  0
   17.3016   15.4666    0.0000 N   0  0  0  0  0  0  0  0  0  0  0  0
   18.2077   13.9111    0.0000 N   0  0  0  0  0  0  0  0  0  0  0  0
   19.0718   15.4561    0.0000 N   0  0  0  0  0  0  0  0  0  0  0  0
    8.6135   12.4319    0.0000 N   0  0  0  0  0  0  0  0  0  0  0  0
    1.7320    7.0433    0.0000 N   0  0  0  0  0  0  0  0  0  0  0  0
    0.8660    8.5433    0.0000 N   0  0  0  0  0  0  0  0  0  0  0  0
   12.0442    3.8867    0.0000 C   0  0  2  0  0  0  0  0  0  0  0  0
   13.0442    3.8867    0.0000 C   0  0  2  0  0  0  0  0  0  0  0  0
   11.7352    2.9356    0.0000 C   0  5  0  0  0  0  0  0  0  0  0  0
   13.3532    2.9356    0.0000 C   0  5  0  0  0  0  0  0  0  0  0  0
   11.5095    4.7806    0.0000 C   0  0  0  0  0  0  0  0  0  0  0  0
   13.5789    4.7806    0.0000 C   0  0  0  0  0  0  0  0  0  0  0  0
   12.0234    5.6867    0.0000 C   0  0  0  0  0  0  0  0  0  0  0  0
   13.0650    5.6867    0.0000 C   0  0  0  0  0  0  0  0  0  0  0  0
   12.0442    0.8090    0.0000 C   0  0  0  0  0  0  0  0  0  0  0  0
   13.0442    0.8090    0.0000 C   0  0  0  0  0  0  0  0  0  0  0  0
   14.6756   13.9319    0.0000 C   0  0  3  0  0  0  0  0  0  0  0  0
   14.6756   14.9319    0.0000 C   0  0  0  0  0  0  0  0  0  0  0  0
   13.8096   13.4319    0.0000 C   0  0  0  0  0  0  0  0  0  0  0  0
   16.4077   13.9319    0.0000 C   0  0  0  0  0  0  0  0  0  0  0  0
   16.4077   14.9319    0.0000 C   0  0  0  0  0  0  0  0  0  0  0  0
   17.3016   13.3973    0.0000 C   0  0  0  0  0  0  0  0  0  0  0  0
   15.5417   12.4319    0.0000 C   0  0  0  0  0  0  0  0  0  0  0  0
   12.0776   13.4319    0.0000 C   0  0  0  0  0  0  0  0  0  0  0  0
   18.2077   14.9527    0.0000 C   0  0  0  0  0  0  0  0  0  0  0  0
   12.0776   12.4319    0.0000 C   0  0  0  0  0  0  0  0  0  0  0  0
   11.2115   13.9319    0.0000 C   0  0  0  0  0  0  0  0  0  0  0  0
   10.3455   12.4319    0.0000 C   0  0  0  0  0  0  0  0  0  0  0  0
   11.2115   11.9319    0.0000 C   0  0  0  0  0  0  0  0  0  0  0  0
   10.3455   13.4319    0.0000 C   0  0  0  0  0  0  0  0  0  0  0  0
    7.7474   11.9319    0.0000 C   0  0  1  0  0  0  0  0  0  0  0  0
    9.4795   11.9319    0.0000 C   0  0  0  0  0  0  0  0  0  0  0  0
    7.7474   10.9319    0.0000 C   0  0  0  0  0  0  0  0  0  0  0  0
    6.8814   10.4319    0.0000 C   0  0  0  0  0  0  0  0  0  0  0  0
    6.8814   12.4319    0.0000 C   0  0  0  0  0  0  0  0  0  0  0  0
    6.8814    9.4319    0.0000 C   0  0  0  0  0  0  0  0  0  0  0  0
    2.5981    8.5433    0.0000 C   0  0  0  0  0  0  0  0  0  0  0  0
    0.8660    7.5433    0.0000 C   0  0  0  0  0  0  0  0  0  0  0  0
    2.5981    7.5433    0.0000 C   0  0  0  0  0  0  0  0  0  0  0  0
    1.7320    9.0433    0.0000 C   0  0  0  0  0  0  0  0  0  0  0  0
   11.1996    3.7913    0.0000 H   0  0  0  0  0  0  0  0  0  0  0  0
   13.8888    3.7913    0.0000 H   0  0  0  0  0  0  0  0  0  0  0  0
   11.1455    3.1272    0.0000 H   0  0  0  0  0  0  0  0  0  0  0  0
   11.3707    2.4340    0.0000 H   0  0  0  0  0  0  0  0  0  0  0  0
   13.9429    3.1272    0.0000 H   0  0  0  0  0  0  0  0  0  0  0  0
   13.7176    2.4340    0.0000 H   0  0  0  0  0  0  0  0  0  0  0  0
   11.0305    5.1743    0.0000 H   0  0  0  0  0  0  0  0  0  0  0  0
   11.0397    4.3760    0.0000 H   0  0  0  0  0  0  0  0  0  0  0  0
   14.0486    4.3760    0.0000 H   0  0  0  0  0  0  0  0  0  0  0  0
   14.0579    5.1743    0.0000 H   0  0  0  0  0  0  0  0  0  0  0  0
   12.1295    6.2976    0.0000 H   0  0  0  0  0  0  0  0  0  0  0  0
   11.4397    5.8958    0.0000 H   0  0  0  0  0  0  0  0  0  0  0  0
   13.6487    5.8958    0.0000 H   0  0  0  0  0  0  0  0  0  0  0  0
   12.9589    6.2976    0.0000 H   0  0  0  0  0  0  0  0  0  0  0  0
   11.1287    1.6312    0.0000 H   0  0  0  0  0  0  0  0  0  0  0  0
   13.9597    1.6312    0.0000 H   0  0  0  0  0  0  0  0  0  0  0  0
   14.6756   13.3119    0.0000 H   0  0  0  0  0  0  0  0  0  0  0  0
   14.4636   15.5145    0.0000 H   0  0  0  0  0  0  0  0  0  0  0  0
   14.0651   14.8243    0.0000 H   0  0  0  0  0  0  0  0  0  0  0  0
   13.4111   12.9570    0.0000 H   0  0  0  0  0  0  0  0  0  0  0  0
   14.2082   12.9570    0.0000 H   0  0  0  0  0  0  0  0  0  0  0  0
   15.5417   16.0519    0.0000 H   0  0  0  0  0  0  0  0  0  0  0  0
   12.9436   14.5519    0.0000 H   0  0  0  0  0  0  0  0  0  0  0  0
   17.2945   16.0865    0.0000 H   0  0  0  0  0  0  0  0  0  0  0  0
   16.0786   12.1219    0.0000 H   0  0  0  0  0  0  0  0  0  0  0  0
   12.6145   12.1219    0.0000 H   0  0  0  0  0  0  0  0  0  0  0  0
   11.2115   14.5519    0.0000 H   0  0  0  0  0  0  0  0  0  0  0  0
   11.2115   11.3119    0.0000 H   0  0  0  0  0  0  0  0  0  0  0  0
    9.8086   13.7419    0.0000 H   0  0  0  0  0  0  0  0  0  0  0  0
   19.6099   15.1481    0.0000 H   0  0  0  0  0  0  0  0  0  0  0  0
   19.0694   16.0761    0.0000 H   0  0  0  0  0  0  0  0  0  0  0  0
    7.7474   12.5519    0.0000 H   0  0  0  0  0  0  0  0  0  0  0  0
    7.9595   10.3493    0.0000 H   0  0  0  0  0  0  0  0  0  0  0  0
    8.3580   11.0396    0.0000 H   0  0  0  0  0  0  0  0  0  0  0  0
    8.6135   13.0519    0.0000 H   0  0  0  0  0  0  0  0  0  0  0  0
    6.6694   11.0145    0.0000 H   0  0  0  0  0  0  0  0  0  0  0  0
    6.2708   10.3243    0.0000 H   0  0  0  0  0  0  0  0  0  0  0  0
    5.4785   12.2419    0.0000 H   0  0  0  0  0  0  0  0  0  0  0  0
    6.0154    8.3119    0.0000 H   0  0  0  0  0  0  0  0  0  0  0  0
    1.7320    6.4233    0.0000 H   0  0  0  0  0  0  0  0  0  0  0  0
    0.3291    8.8533    0.0000 H   0  0  0  0  0  0  0  0  0  0  0  0
    1.7320    9.6633    0.0000 H   0  0  0  0  0  0  0  0  0  0  0  0
  2 55  1  0  0  0  0
  3 34  1  0  0  0  0
  3 74  1  0  0  0  0
  4 33  1  0  0  0  0
  4 73  1  0  0  0  0
  5 33  2  0  0  0  0
  6 34  2  0  0  0  0
  7 40  2  0  0  0  0
  8 41  2  0  0  0  0
  9 50  2  0  0  0  0
 10 53  1  0  0  0  0
 10 96  1  0  0  0  0
 11 53  2  0  0  0  0
 12 54  1  0  0  0  0
 12 97  1  0  0  0  0
 13 54  2  0  0  0  0
 14 56  2  0  0  0  0
 15 57  2  0  0  0  0
 16 35  1  0  0  0  0
 16 38  1  0  0  0  0
 16 41  1  0  0  0  0
 17 36  1  0  0  0  0
 17 39  1  0  0  0  0
 17 80  1  0  0  0  0
 18 37  1  0  0  0  0
 18 42  1  0  0  0  0
 18 81  1  0  0  0  0
 19 39  1  0  0  0  0
 19 43  1  0  0  0  0
 19 82  1  0  0  0  0
 20 40  1  0  0  0  0
 20 43  2  0  0  0  0
 21 43  1  0  0  0  0
 21 88  1  0  0  0  0
 21 89  1  0  0  0  0
 49 22  1  1  0  0  0
 22 50  1  0  0  0  0
 22 93  1  0  0  0  0
 23 56  1  0  0  0  0
 23 57  1  0  0  0  0
 23 98  1  0  0  0  0
 24 56  1  0  0  0  0
 24 58  1  0  0  0  0
 24 99  1  0  0  0  0
 25 26  1  0  0  0  0
 25 27  1  0  0  0  0
 25 29  1  0  0  0  0
 25 59  1  1  0  0  0
 26 28  1  0  0  0  0
 26 30  1  0  0  0  0
 26 60  1  6  0  0  0
 27 61  1  0  0  0  0
 27 62  1  0  0  0  0
 28 63  1  0  0  0  0
 28 64  1  0  0  0  0
 29 31  1  0  0  0  0
 29 65  1  0  0  0  0
 29 66  1  0  0  0  0
 30 32  1  0  0  0  0
 30 67  1  0  0  0  0
 30 68  1  0  0  0  0
 31 32  1  0  0  0  0
 31 69  1  0  0  0  0
 31 70  1  0  0  0  0
 32 71  1  0  0  0  0
 32 72  1  0  0  0  0
 33 34  1  0  0  0  0
 35 36  1  0  0  0  0
 35 37  1  0  0  0  0
 35 75  1  0  0  0  0
 36 76  1  0  0  0  0
 36 77  1  0  0  0  0
 37 78  1  0  0  0  0
 37 79  1  0  0  0  0
 38 39  2  0  0  0  0
 38 40  1  0  0  0  0
 41 83  1  0  0  0  0
 42 44  2  0  0  0  0
 42 45  1  0  0  0  0
 44 47  1  0  0  0  0
 44 84  1  0  0  0  0
 45 48  2  0  0  0  0
 45 85  1  0  0  0  0
 46 47  2  0  0  0  0
 46 48  1  0  0  0  0
 46 50  1  0  0  0  0
 47 86  1  0  0  0  0
 48 87  1  0  0  0  0
 49 51  1  0  0  0  0
 49 53  1  0  0  0  0
 49 90  1  0  0  0  0
 51 52  1  0  0  0  0
 51 91  1  0  0  0  0
 51 92  1  0  0  0  0
 52 54  1  0  0  0  0
 52 94  1  0  0  0  0
 52 95  1  0  0  0  0
 55 57  1  0  0  0  0
 55 58  2  0  0  0  0
 58100  1  0  0  0  0
M  CHG  3   1   2  27  -1  28  -1
M  END
> <PUBCHEM_COMPOUND_CID>
56842121

> <PUBCHEM_COMPOUND_CANONICALIZED>
1

> <PUBCHEM_CACTVS_COMPLEXITY>
1290

> <PUBCHEM_CACTVS_HBOND_ACCEPTOR>
18

> <PUBCHEM_CACTVS_HBOND_DONOR>
11

> <PUBCHEM_CACTVS_ROTATABLE_BOND>
9

> <PUBCHEM_CACTVS_SUBSKEYS>
AAADcfB//QAAAAAAAAAABAAAAAAAASJAAAAwYIECAAAAAEiBAAAAHwAQCAAADSjBmAYxyIPAAgCoAiXW/AKCAAElAgAJiIHIZMiLYDLA1bGUYQhslyLZyce8r4CeiAAAAAAAAAAQAAAAACAAAAAAAAAAAA==

> <PUBCHEM_IUPAC_OPENEYE_NAME>
(2S)-2-[[4-[(2-amino-5-formyl-4-oxo-1,6,7,8-tetrahydropteridin-6-yl)methylamino]benzoyl]amino]pentanedioic acid;(1R,2R)-1,2-dimethanidylcyclohexane;5-fluoro-1H-pyrimidine-2,4-dione;oxalic acid;platinum(2+)

> <PUBCHEM_IUPAC_CAS_NAME>
(2S)-2-[[[4-[(2-amino-5-formyl-4-oxo-1,6,7,8-tetrahydropteridin-6-yl)methylamino]phenyl]-oxomethyl]amino]pentanedioic acid;(1R,2R)-1,2-dimethanidylcyclohexane;5-fluoro-1H-pyrimidine-2,4-dione;oxalic acid;platinum(2+)

> <PUBCHEM_IUPAC_NAME>
(2S)-2-[[4-[(2-amino-5-formyl-4-oxo-1,6,7,8-tetrahydropteridin-6-yl)methylamino]benzoyl]amino]pentanedioic acid;(1R,2R)-1,2-dimethanidylcyclohexane;5-fluoro-1H-pyrimidine-2,4-dione;oxalic acid;platinum(2+)

> <PUBCHEM_IUPAC_SYSTEMATIC_NAME>
(2S)-2-[[4-[(2-azanyl-5-methanoyl-4-oxidanylidene-1,6,7,8-tetrahydropteridin-6-yl)methylamino]phenyl]carbonylamino]pentanedioic acid;(1R,2R)-1,2-dimethanidylcyclohexane;ethanedioic acid;5-fluoranyl-1H-pyrimidine-2,4-dione;platinum(2+)

> <PUBCHEM_IUPAC_TRADITIONAL_NAME>
(2S)-2-[[4-[(2-amino-5-formyl-4-keto-1,6,7,8-tetrahydropteridin-6-yl)methylamino]benzoyl]amino]glutaric acid;(1R,2R)-1,2-dimethanidylcyclohexane;5-fluorouracil;oxalic acid;platinum(2+)

> <PUBCHEM_IUPAC_INCHI>
InChI=1S/C20H23N7O7.C8H14.C4H3FN2O2.C2H2O4.Pt/c21-20-25-16-15(18(32)26-20)27(9-28)12(8-23-16)7-22-11-3-1-10(2-4-11)17(31)24-13(19(33)34)5-6-14(29)30;1-7-5-3-4-6-8(7)2;5-2-1-6-4(9)7-3(2)8;3-1(4)2(5)6;/h1-4,9,12-13,22H,5-8H2,(H,24,31)(H,29,30)(H,33,34)(H4,21,23,25,26,32);7-8H,1-6H2;1H,(H2,6,7,8,9);(H,3,4)(H,5,6);/q;-2;;;+2/t12?,13-;7-,8-;;;/m01.../s1

> <PUBCHEM_IUPAC_INCHIKEY>
YXTKHLHCVFUPPT-YYFJYKOTSA-N

> <PUBCHEM_EXACT_MASS>
998.253402

> <PUBCHEM_MOLECULAR_FORMULA>
C34H42FN9O13Pt

> <PUBCHEM_MOLECULAR_WEIGHT>
998.832183

> <PUBCHEM_OPENEYE_CAN_SMILES>
[CH2-]C1CCCCC1[CH2-].C1C(N(C2=C(N1)NC(=NC2=O)N)C=O)CNC3=CC=C(C=C3)C(=O)NC(CCC(=O)O)C(=O)O.C1=C(C(=O)NC(=O)N1)F.C(=O)(C(=O)O)O.[Pt+2]

> <PUBCHEM_OPENEYE_ISO_SMILES>
[CH2-][C@@H]1CCCC[C@H]1[CH2-].C1C(N(C2=C(N1)NC(=NC2=O)N)C=O)CNC3=CC=C(C=C3)C(=O)N[C@@H](CCC(=O)O)C(=O)O.C1=C(C(=O)NC(=O)N1)F.C(=O)(C(=O)O)O.[Pt+2]

> <PUBCHEM_CACTVS_TPSA>
348

> <PUBCHEM_MONOISOTOPIC_WEIGHT>
998.253402

> <PUBCHEM_TOTAL_CHARGE>
0

> <PUBCHEM_HEAVY_ATOM_COUNT>
58

> <PUBCHEM_ATOM_DEF_STEREO_COUNT>
3

> <PUBCHEM_ATOM_UDEF_STEREO_COUNT>
1

> <PUBCHEM_BOND_DEF_STEREO_COUNT>
0

> <PUBCHEM_BOND_UDEF_STEREO_COUNT>
0

> <PUBCHEM_ISOTOPIC_ATOM_COUNT>
0

> <PUBCHEM_COMPONENT_COUNT>
5

> <PUBCHEM_CACTVS_TAUTO_COUNT>
1001

> <PUBCHEM_NONSTANDARDBOND>
1  27  6
1  28  6
1  3  6
1  4  6

> <PUBCHEM_COORDINATE_TYPE>
1
5
255

> <PUBCHEM_BONDANNOTATIONS>
19  39  8
19  43  8
20  40  8
20  43  8
49  22  5
23  56  8
23  57  8
24  56  8
24  58  8
25  59  5
26  60  6
35  37  3
38  39  8
38  40  8
42  44  8
42  45  8
44  47  8
45  48  8
46  47  8
46  48  8
55  57  8
55  58  8

$$$$
56946894
  -OEChem-11121519512D

 56 59  0     1  0  0  0  0  0999 V2000
    2.8660   -0.3730    0.0000 O   0  0  0  0  0  0  0  0  0  0  0  0
    7.1962    4.1270    0.0000 N   0  0  0  0  0  0  0  0  0  0  0  0
    8.0622    2.6270    0.0000 N   0  0  0  0  0  0  0  0  0  0  0  0
    9.0084    2.9317    0.0000 N   0  0  0  0  0  0  0  0  0  0  0  0
    7.1962    1.1270    0.0000 N   0  0  0  0  0  0  0  0  0  0  0  0
    5.4641    1.1270    0.0000 N   0  0  0  0  0  0  0  0  0  0  0  0
    5.4641   -2.8730    0.0000 N   0  0  3  0  0  0  0  0  0  0  0  0
    3.7320   -1.8730    0.0000 N   0  0  0  0  0  0  0  0  0  0  0  0
    7.1962   -4.8730    0.0000 N   0  0  0  0  0  0  0  0  0  0  0  0
    9.6297   -0.5788    0.0000 N   0  0  0  0  0  0  0  0  0  0  0  0
    6.3301    4.6270    0.0000 C   0  0  0  0  0  0  0  0  0  0  0  0
    5.8301    5.4930    0.0000 C   0  0  0  0  0  0  0  0  0  0  0  0
    5.3301    4.6270    0.0000 C   0  0  0  0  0  0  0  0  0  0  0  0
    7.1962    3.1270    0.0000 C   0  0  0  0  0  0  0  0  0  0  0  0
    6.3301    2.6270    0.0000 C   0  0  0  0  0  0  0  0  0  0  0  0
    8.0622    1.6270    0.0000 C   0  0  0  0  0  0  0  0  0  0  0  0
    6.3301    1.6270    0.0000 C   0  0  0  0  0  0  0  0  0  0  0  0
    9.0084    1.3223    0.0000 C   0  0  0  0  0  0  0  0  0  0  0  0
    9.5920    2.1270    0.0000 C   0  0  0  0  0  0  0  0  0  0  0  0
    5.4641    0.1270    0.0000 C   0  0  0  0  0  0  0  0  0  0  0  0
    5.4641   -1.8730    0.0000 C   0  0  0  0  0  0  0  0  0  0  0  0
    4.5981   -1.3730    0.0000 C   0  0  0  0  0  0  0  0  0  0  0  0
    4.5981   -0.3730    0.0000 C   0  0  0  0  0  0  0  0  0  0  0  0
    6.3301   -0.3730    0.0000 C   0  0  0  0  0  0  0  0  0  0  0  0
    6.3301   -3.3730    0.0000 C   0  0  0  0  0  0  0  0  0  0  0  0
    6.3301   -1.3730    0.0000 C   0  0  0  0  0  0  0  0  0  0  0  0
    4.5981   -3.3730    0.0000 C   0  0  0  0  0  0  0  0  0  0  0  0
    6.3301   -4.3730    0.0000 C   0  0  0  0  0  0  0  0  0  0  0  0
    9.3191    0.3717    0.0000 C   0  0  0  0  0  0  0  0  0  0  0  0
    2.8660   -1.3730    0.0000 C   0  0  0  0  0  0  0  0  0  0  0  0
    2.0000   -1.8730    0.0000 C   0  0  0  0  0  0  0  0  0  0  0  0
    6.7685    5.0654    0.0000 H   0  0  0  0  0  0  0  0  0  0  0  0
    4.7475    4.8390    0.0000 H   0  0  0  0  0  0  0  0  0  0  0  0
    5.2225    4.0164    0.0000 H   0  0  0  0  0  0  0  0  0  0  0  0
    6.3051    5.8915    0.0000 H   0  0  0  0  0  0  0  0  0  0  0  0
    5.3552    5.8915    0.0000 H   0  0  0  0  0  0  0  0  0  0  0  0
    7.7331    4.4370    0.0000 H   0  0  0  0  0  0  0  0  0  0  0  0
    5.7932    2.9370    0.0000 H   0  0  0  0  0  0  0  0  0  0  0  0
    4.9272    1.4370    0.0000 H   0  0  0  0  0  0  0  0  0  0  0  0
   10.2120    2.1270    0.0000 H   0  0  0  0  0  0  0  0  0  0  0  0
    4.0611   -0.0630    0.0000 H   0  0  0  0  0  0  0  0  0  0  0  0
    6.8671   -0.0630    0.0000 H   0  0  0  0  0  0  0  0  0  0  0  0
    6.9407   -3.4807    0.0000 H   0  0  0  0  0  0  0  0  0  0  0  0
    6.5422   -2.7904    0.0000 H   0  0  0  0  0  0  0  0  0  0  0  0
    6.8671   -1.6830    0.0000 H   0  0  0  0  0  0  0  0  0  0  0  0
    4.2881   -2.8361    0.0000 H   0  0  0  0  0  0  0  0  0  0  0  0
    4.0611   -3.6830    0.0000 H   0  0  0  0  0  0  0  0  0  0  0  0
    4.9081   -3.9100    0.0000 H   0  0  0  0  0  0  0  0  0  0  0  0
    5.7196   -4.2654    0.0000 H   0  0  0  0  0  0  0  0  0  0  0  0
    6.1181   -4.9556    0.0000 H   0  0  0  0  0  0  0  0  0  0  0  0
    3.7320   -2.4930    0.0000 H   0  0  0  0  0  0  0  0  0  0  0  0
    7.1962   -5.4930    0.0000 H   0  0  0  0  0  0  0  0  0  0  0  0
    7.7331   -4.5630    0.0000 H   0  0  0  0  0  0  0  0  0  0  0  0
    1.6900   -1.3361    0.0000 H   0  0  0  0  0  0  0  0  0  0  0  0
    1.4631   -2.1830    0.0000 H   0  0  0  0  0  0  0  0  0  0  0  0
    2.3100   -2.4099    0.0000 H   0  0  0  0  0  0  0  0  0  0  0  0
  1 30  2  0  0  0  0
  2 11  1  0  0  0  0
  2 14  1  0  0  0  0
  2 37  1  0  0  0  0
  3  4  1  0  0  0  0
  3 14  1  0  0  0  0
  3 16  1  0  0  0  0
  4 19  2  0  0  0  0
  5 16  1  0  0  0  0
  5 17  2  0  0  0  0
  6 17  1  0  0  0  0
  6 20  1  0  0  0  0
  6 39  1  0  0  0  0
  7 21  1  0  0  0  0
  7 25  1  0  0  0  0
  7 27  1  0  0  0  0
  8 22  1  0  0  0  0
  8 30  1  0  0  0  0
  8 51  1  0  0  0  0
  9 28  1  0  0  0  0
  9 52  1  0  0  0  0
  9 53  1  0  0  0  0
 10 29  3  0  0  0  0
 11 12  1  0  0  0  0
 11 13  1  0  0  0  0
 11 32  1  0  0  0  0
 12 13  1  0  0  0  0
 12 35  1  0  0  0  0
 12 36  1  0  0  0  0
 13 33  1  0  0  0  0
 13 34  1  0  0  0  0
 14 15  2  0  0  0  0
 15 17  1  0  0  0  0
 15 38  1  0  0  0  0
 16 18  2  0  0  0  0
 18 19  1  0  0  0  0
 18 29  1  0  0  0  0
 19 40  1  0  0  0  0
 20 23  2  0  0  0  0
 20 24  1  0  0  0  0
 21 22  2  0  0  0  0
 21 26  1  0  0  0  0
 22 23  1  0  0  0  0
 23 41  1  0  0  0  0
 24 26  2  0  0  0  0
 24 42  1  0  0  0  0
 25 28  1  0  0  0  0
 25 43  1  0  0  0  0
 25 44  1  0  0  0  0
 26 45  1  0  0  0  0
 27 46  1  0  0  0  0
 27 47  1  0  0  0  0
 27 48  1  0  0  0  0
 28 49  1  0  0  0  0
 28 50  1  0  0  0  0
 30 31  1  0  0  0  0
 31 54  1  0  0  0  0
 31 55  1  0  0  0  0
 31 56  1  0  0  0  0
M  END
> <PUBCHEM_COMPOUND_CID>
56946894

> <PUBCHEM_COMPOUND_CANONICALIZED>
1

> <PUBCHEM_CACTVS_COMPLEXITY>
677

> <PUBCHEM_CACTVS_HBOND_ACCEPTOR>
8

> <PUBCHEM_CACTVS_HBOND_DONOR>
4

> <PUBCHEM_CACTVS_ROTATABLE_BOND>
8

> <PUBCHEM_CACTVS_SUBSKEYS>
AAADceB74AAAAAAAAAAAAAAAGAAAAWAAAAA8QAAAAAAAAFgB8AAAHgAYAAAADCjBmwQ/8J/IEAC6Bjd3dACyhCshgqAdmKA4dJiI6OLA2dGUpAh4nALIyCcQAAAAAACAAAQAACAAAQAACAAAQAAAAAAAAA==

> <PUBCHEM_IUPAC_OPENEYE_NAME>
N-[2-[2-aminoethyl(methyl)amino]-5-[[3-cyano-7-(cyclopropylamino)pyrazolo[1,5-a]pyrimidin-5-yl]amino]phenyl]acetamide

> <PUBCHEM_IUPAC_CAS_NAME>
N-[2-[2-aminoethyl(methyl)amino]-5-[[3-cyano-7-(cyclopropylamino)-5-pyrazolo[1,5-a]pyrimidinyl]amino]phenyl]acetamide

> <PUBCHEM_IUPAC_NAME>
N-[2-[2-aminoethyl(methyl)amino]-5-[[3-cyano-7-(cyclopropylamino)pyrazolo[1,5-a]pyrimidin-5-yl]amino]phenyl]acetamide

> <PUBCHEM_IUPAC_SYSTEMATIC_NAME>
N-[2-[2-azanylethyl(methyl)amino]-5-[[3-cyano-7-(cyclopropylamino)pyrazolo[1,5-a]pyrimidin-5-yl]amino]phenyl]ethanamide

> <PUBCHEM_IUPAC_TRADITIONAL_NAME>
N-[2-[2-aminoethyl(methyl)amino]-5-[[3-cyano-7-(cyclopropylamino)pyrazolo[1,5-a]pyrimidin-5-yl]amino]phenyl]acetamide

> <PUBCHEM_IUPAC_INCHI>
InChI=1S/C21H25N9O/c1-13(31)25-17-9-16(5-6-18(17)29(2)8-7-22)26-19-10-20(27-15-3-4-15)30-21(28-19)14(11-23)12-24-30/h5-6,9-10,12,15,27H,3-4,7-8,22H2,1-2H3,(H,25,31)(H,26,28)

> <PUBCHEM_IUPAC_INCHIKEY>
FBMJGDCKBKUMJF-UHFFFAOYSA-N

> <PUBCHEM_XLOGP3_AA>
1.2

> <PUBCHEM_EXACT_MASS>
419.218206

> <PUBCHEM_MOLECULAR_FORMULA>
C21H25N9O

> <PUBCHEM_MOLECULAR_WEIGHT>
419.4829

> <PUBCHEM_OPENEYE_CAN_SMILES>
CC(=O)NC1=C(C=CC(=C1)NC2=NC3=C(C=NN3C(=C2)NC4CC4)C#N)N(C)CCN

> <PUBCHEM_OPENEYE_ISO_SMILES>
CC(=O)NC1=C(C=CC(=C1)NC2=NC3=C(C=NN3C(=C2)NC4CC4)C#N)N(C)CCN

> <PUBCHEM_CACTVS_TPSA>
136

> <PUBCHEM_MONOISOTOPIC_WEIGHT>
419.218206

> <PUBCHEM_TOTAL_CHARGE>
0

> <PUBCHEM_HEAVY_ATOM_COUNT>
31

> <PUBCHEM_ATOM_DEF_STEREO_COUNT>
0

> <PUBCHEM_ATOM_UDEF_STEREO_COUNT>
0

> <PUBCHEM_BOND_DEF_STEREO_COUNT>
0

> <PUBCHEM_BOND_UDEF_STEREO_COUNT>
0

> <PUBCHEM_ISOTOPIC_ATOM_COUNT>
0

> <PUBCHEM_COMPONENT_COUNT>
1

> <PUBCHEM_CACTVS_TAUTO_COUNT>
33

> <PUBCHEM_COORDINATE_TYPE>
1
5
255

> <PUBCHEM_BONDANNOTATIONS>
14  15  8
15  17  8
16  18  8
18  19  8
20  23  8
20  24  8
21  22  8
21  26  8
22  23  8
24  26  8
3  14  8
3  16  8
3  4  8
4  19  8
5  16  8
5  17  8

$$$$
56951429
  -OEChem-11121519512D

 49 51  0     0  0  0  0  0  0999 V2000
    2.0000    0.4239    0.0000 F   0  0  0  0  0  0  0  0  0  0  0  0
    2.3660   -0.9421    0.0000 F   0  0  0  0  0  0  0  0  0  0  0  0
    3.3660    0.7900    0.0000 F   0  0  0  0  0  0  0  0  0  0  0  0
    8.0622    2.9239    0.0000 F   0  0  0  0  0  0  0  0  0  0  0  0
    3.7320    2.4239    0.0000 O   0  0  0  0  0  0  0  0  0  0  0  0
    5.4641    4.4239    0.0000 O   0  0  0  0  0  0  0  0  0  0  0  0
    4.5981    0.9239    0.0000 N   0  0  0  0  0  0  0  0  0  0  0  0
    6.3301   -2.0761    0.0000 N   0  0  0  0  0  0  0  0  0  0  0  0
    6.8301   -4.6149    0.0000 N   0  0  0  0  0  0  0  0  0  0  0  0
    4.5981   -2.0761    0.0000 N   0  0  0  0  0  0  0  0  0  0  0  0
    5.8301   -4.6149    0.0000 N   0  0  0  0  0  0  0  0  0  0  0  0
    4.5981    3.9239    0.0000 N   0  0  0  0  0  0  0  0  0  0  0  0
    4.5981   -0.0761    0.0000 C   0  0  0  0  0  0  0  0  0  0  0  0
    3.7320   -0.5761    0.0000 C   0  0  0  0  0  0  0  0  0  0  0  0
    6.3301   -3.0761    0.0000 C   0  0  0  0  0  0  0  0  0  0  0  0
    5.4641   -1.5761    0.0000 C   0  0  0  0  0  0  0  0  0  0  0  0
    5.4641   -0.5761    0.0000 C   0  0  0  0  0  0  0  0  0  0  0  0
    5.4641    1.4239    0.0000 C   0  0  0  0  0  0  0  0  0  0  0  0
    5.5211   -3.6639    0.0000 C   0  0  0  0  0  0  0  0  0  0  0  0
    7.1391   -3.6639    0.0000 C   0  0  0  0  0  0  0  0  0  0  0  0
    5.4641    2.4239    0.0000 C   0  0  0  0  0  0  0  0  0  0  0  0
    3.7320   -1.5761    0.0000 C   0  0  0  0  0  0  0  0  0  0  0  0
    2.8660   -0.0761    0.0000 C   0  0  0  0  0  0  0  0  0  0  0  0
    6.3301    0.9239    0.0000 C   0  0  0  0  0  0  0  0  0  0  0  0
    4.5700   -3.3548    0.0000 C   0  0  0  0  0  0  0  0  0  0  0  0
    6.3301    2.9239    0.0000 C   0  0  0  0  0  0  0  0  0  0  0  0
    7.1962    1.4239    0.0000 C   0  0  0  0  0  0  0  0  0  0  0  0
    7.4179   -5.4239    0.0000 C   0  0  0  0  0  0  0  0  0  0  0  0
    7.1962    2.4239    0.0000 C   0  0  0  0  0  0  0  0  0  0  0  0
    4.5981    2.9239    0.0000 C   0  0  0  0  0  0  0  0  0  0  0  0
    5.4641    5.4239    0.0000 C   0  0  0  0  0  0  0  0  0  0  0  0
    6.0010   -0.2661    0.0000 H   0  0  0  0  0  0  0  0  0  0  0  0
    4.0611    1.2339    0.0000 H   0  0  0  0  0  0  0  0  0  0  0  0
    6.8671   -1.7661    0.0000 H   0  0  0  0  0  0  0  0  0  0  0  0
    7.7288   -3.4723    0.0000 H   0  0  0  0  0  0  0  0  0  0  0  0
    3.1951   -1.8861    0.0000 H   0  0  0  0  0  0  0  0  0  0  0  0
    6.3301    0.3039    0.0000 H   0  0  0  0  0  0  0  0  0  0  0  0
    4.7616   -2.7652    0.0000 H   0  0  0  0  0  0  0  0  0  0  0  0
    3.9804   -3.1632    0.0000 H   0  0  0  0  0  0  0  0  0  0  0  0
    4.3785   -3.9445    0.0000 H   0  0  0  0  0  0  0  0  0  0  0  0
    6.3301    3.5439    0.0000 H   0  0  0  0  0  0  0  0  0  0  0  0
    7.7331    1.1139    0.0000 H   0  0  0  0  0  0  0  0  0  0  0  0
    6.9163   -5.7884    0.0000 H   0  0  0  0  0  0  0  0  0  0  0  0
    7.7823   -5.9255    0.0000 H   0  0  0  0  0  0  0  0  0  0  0  0
    7.9195   -5.0595    0.0000 H   0  0  0  0  0  0  0  0  0  0  0  0
    4.0611    4.2339    0.0000 H   0  0  0  0  0  0  0  0  0  0  0  0
    6.0841    5.4239    0.0000 H   0  0  0  0  0  0  0  0  0  0  0  0
    5.4641    6.0439    0.0000 H   0  0  0  0  0  0  0  0  0  0  0  0
    4.8441    5.4239    0.0000 H   0  0  0  0  0  0  0  0  0  0  0  0
  1 23  1  0  0  0  0
  2 23  1  0  0  0  0
  3 23  1  0  0  0  0
  4 29  1  0  0  0  0
  5 30  2  0  0  0  0
  6 12  1  0  0  0  0
  6 31  1  0  0  0  0
  7 13  1  0  0  0  0
  7 18  1  0  0  0  0
  7 33  1  0  0  0  0
  8 15  1  0  0  0  0
  8 16  1  0  0  0  0
  8 34  1  0  0  0  0
  9 11  1  0  0  0  0
  9 20  1  0  0  0  0
  9 28  1  0  0  0  0
 10 16  2  0  0  0  0
 10 22  1  0  0  0  0
 11 19  2  0  0  0  0
 12 30  1  0  0  0  0
 12 46  1  0  0  0  0
 13 14  1  0  0  0  0
 13 17  2  0  0  0  0
 14 22  2  0  0  0  0
 14 23  1  0  0  0  0
 15 19  1  0  0  0  0
 15 20  2  0  0  0  0
 16 17  1  0  0  0  0
 17 32  1  0  0  0  0
 18 21  2  0  0  0  0
 18 24  1  0  0  0  0
 19 25  1  0  0  0  0
 20 35  1  0  0  0  0
 21 26  1  0  0  0  0
 21 30  1  0  0  0  0
 22 36  1  0  0  0  0
 24 27  2  0  0  0  0
 24 37  1  0  0  0  0
 25 38  1  0  0  0  0
 25 39  1  0  0  0  0
 25 40  1  0  0  0  0
 26 29  2  0  0  0  0
 26 41  1  0  0  0  0
 27 29  1  0  0  0  0
 27 42  1  0  0  0  0
 28 43  1  0  0  0  0
 28 44  1  0  0  0  0
 28 45  1  0  0  0  0
 31 47  1  0  0  0  0
 31 48  1  0  0  0  0
 31 49  1  0  0  0  0
M  END
> <PUBCHEM_COMPOUND_CID>
56951429

> <PUBCHEM_COMPOUND_CANONICALIZED>
1

> <PUBCHEM_CACTVS_COMPLEXITY>
612

> <PUBCHEM_CACTVS_HBOND_ACCEPTOR>
10

> <PUBCHEM_CACTVS_HBOND_DONOR>
3

> <PUBCHEM_CACTVS_ROTATABLE_BOND>
6

> <PUBCHEM_CACTVS_SUBSKEYS>
AAADceB7scAAAAAAAAAAAAAAAAAAAWAAAAA8QAAAAAAAAAAB8AAAHwAcAAAADAjBnh4/8JLYEACqAzd3dACShCk1kiA52CE4dNiIYPrA3dGUpYhomALIyecYiACOAAAAAAACAAAAAAAAAAQAAAAAAAAAAA==

> <PUBCHEM_IUPAC_OPENEYE_NAME>
2-[[2-[(1,3-dimethylpyrazol-4-yl)amino]-5-(trifluoromethyl)-4-pyridyl]amino]-5-fluoro-N-methoxy-benzamide

> <PUBCHEM_IUPAC_CAS_NAME>
2-[[2-[(1,3-dimethyl-4-pyrazolyl)amino]-5-(trifluoromethyl)-4-pyridinyl]amino]-5-fluoro-N-methoxybenzamide

> <PUBCHEM_IUPAC_NAME>
2-[[2-[(1,3-dimethylpyrazol-4-yl)amino]-5-(trifluoromethyl)pyridin-4-yl]amino]-5-fluoro-N-methoxybenzamide

> <PUBCHEM_IUPAC_SYSTEMATIC_NAME>
2-[[2-[(1,3-dimethylpyrazol-4-yl)amino]-5-(trifluoromethyl)pyridin-4-yl]amino]-5-fluoranyl-N-methoxy-benzamide

> <PUBCHEM_IUPAC_TRADITIONAL_NAME>
2-[[2-[(1,3-dimethylpyrazol-4-yl)amino]-5-(trifluoromethyl)-4-pyridyl]amino]-5-fluoro-N-methoxy-benzamide

> <PUBCHEM_IUPAC_INCHI>
InChI=1S/C19H18F4N6O2/c1-10-16(9-29(2)27-10)26-17-7-15(13(8-24-17)19(21,22)23)25-14-5-4-11(20)6-12(14)18(30)28-31-3/h4-9H,1-3H3,(H,28,30)(H2,24,25,26)

> <PUBCHEM_IUPAC_INCHIKEY>
MWMZPQUFFMXATJ-UHFFFAOYSA-N

> <PUBCHEM_XLOGP3_AA>
3.8

> <PUBCHEM_EXACT_MASS>
438.142737

> <PUBCHEM_MOLECULAR_FORMULA>
C19H18F4N6O2

> <PUBCHEM_MOLECULAR_WEIGHT>
438.378833

> <PUBCHEM_OPENEYE_CAN_SMILES>
CC1=NN(C=C1NC2=NC=C(C(=C2)NC3=C(C=C(C=C3)F)C(=O)NOC)C(F)(F)F)C

> <PUBCHEM_OPENEYE_ISO_SMILES>
CC1=NN(C=C1NC2=NC=C(C(=C2)NC3=C(C=C(C=C3)F)C(=O)NOC)C(F)(F)F)C

> <PUBCHEM_CACTVS_TPSA>
93.1

> <PUBCHEM_MONOISOTOPIC_WEIGHT>
438.142737

> <PUBCHEM_TOTAL_CHARGE>
0

> <PUBCHEM_HEAVY_ATOM_COUNT>
31

> <PUBCHEM_ATOM_DEF_STEREO_COUNT>
0

> <PUBCHEM_ATOM_UDEF_STEREO_COUNT>
0

> <PUBCHEM_BOND_DEF_STEREO_COUNT>
0

> <PUBCHEM_BOND_UDEF_STEREO_COUNT>
0

> <PUBCHEM_ISOTOPIC_ATOM_COUNT>
0

> <PUBCHEM_COMPONENT_COUNT>
1

> <PUBCHEM_CACTVS_TAUTO_COUNT>
38

> <PUBCHEM_COORDINATE_TYPE>
1
5
255

> <PUBCHEM_BONDANNOTATIONS>
10  16  8
10  22  8
11  19  8
13  14  8
13  17  8
14  22  8
15  19  8
15  20  8
16  17  8
18  21  8
18  24  8
21  26  8
24  27  8
26  29  8
27  29  8
9  11  8
9  20  8

$$$$
56973724
  -OEChem-11121519512D

 65 69  0     0  0  0  0  0  0999 V2000
    5.4641   -1.8090    0.0000 O   0  0  0  0  0  0  0  0  0  0  0  0
   14.0561   -0.8090    0.0000 O   0  0  0  0  0  0  0  0  0  0  0  0
    7.1962    1.1910    0.0000 O   0  0  0  0  0  0  0  0  0  0  0  0
   12.4725   -0.0043    0.0000 N   0  0  0  0  0  0  0  0  0  0  0  0
   12.4725   -1.6138    0.0000 N   0  0  0  0  0  0  0  0  0  0  0  0
    2.8660   -0.3090    0.0000 N   0  0  0  0  0  0  0  0  0  0  0  0
   10.6603    0.1910    0.0000 N   0  0  0  0  0  0  0  0  0  0  0  0
    9.7942   -1.3090    0.0000 N   0  0  0  0  0  0  0  0  0  0  0  0
    8.9282    0.1910    0.0000 N   0  0  0  0  0  0  0  0  0  0  0  0
   12.7832    0.9462    0.0000 C   0  0  0  0  0  0  0  0  0  0  0  0
   13.7348    1.2536    0.0000 C   0  0  0  0  0  0  0  0  0  0  0  0
   12.1968    1.7563    0.0000 C   0  0  0  0  0  0  0  0  0  0  0  0
   12.7860    2.5643    0.0000 C   0  0  0  0  0  0  0  0  0  0  0  0
   13.7365    2.2536    0.0000 C   0  0  0  0  0  0  0  0  0  0  0  0
   11.5263   -0.3090    0.0000 C   0  0  0  0  0  0  0  0  0  0  0  0
   13.0561   -0.8090    0.0000 C   0  0  0  0  0  0  0  0  0  0  0  0
    4.5981   -1.3090    0.0000 C   0  0  0  0  0  0  0  0  0  0  0  0
   11.5263   -1.3090    0.0000 C   0  0  0  0  0  0  0  0  0  0  0  0
    3.7320   -1.8090    0.0000 C   0  0  0  0  0  0  0  0  0  0  0  0
    4.5981   -0.3090    0.0000 C   0  0  0  0  0  0  0  0  0  0  0  0
    2.8660   -1.3090    0.0000 C   0  0  0  0  0  0  0  0  0  0  0  0
    3.7320    0.1910    0.0000 C   0  0  0  0  0  0  0  0  0  0  0  0
   12.7832   -2.5643    0.0000 C   0  0  0  0  0  0  0  0  0  0  0  0
   10.6603   -1.8090    0.0000 C   0  0  0  0  0  0  0  0  0  0  0  0
    2.0000    0.1910    0.0000 C   0  0  0  0  0  0  0  0  0  0  0  0
    9.7942   -0.3090    0.0000 C   0  0  0  0  0  0  0  0  0  0  0  0
    6.3301   -1.3090    0.0000 C   0  0  0  0  0  0  0  0  0  0  0  0
    8.0622   -0.3090    0.0000 C   0  0  0  0  0  0  0  0  0  0  0  0
    6.3301   -0.3090    0.0000 C   0  0  0  0  0  0  0  0  0  0  0  0
    7.1962   -1.8090    0.0000 C   0  0  0  0  0  0  0  0  0  0  0  0
    7.1962    0.1910    0.0000 C   0  0  0  0  0  0  0  0  0  0  0  0
    8.0622   -1.3090    0.0000 C   0  0  0  0  0  0  0  0  0  0  0  0
    6.3301    1.6910    0.0000 C   0  0  0  0  0  0  0  0  0  0  0  0
   12.1706    0.8503    0.0000 H   0  0  0  0  0  0  0  0  0  0  0  0
   13.8626    0.6469    0.0000 H   0  0  0  0  0  0  0  0  0  0  0  0
   14.3515    1.3174    0.0000 H   0  0  0  0  0  0  0  0  0  0  0  0
   11.7367    2.1719    0.0000 H   0  0  0  0  0  0  0  0  0  0  0  0
   11.7353    1.3422    0.0000 H   0  0  0  0  0  0  0  0  0  0  0  0
   14.3530    2.1877    0.0000 H   0  0  0  0  0  0  0  0  0  0  0  0
   13.8664    2.8598    0.0000 H   0  0  0  0  0  0  0  0  0  0  0  0
   13.0391    3.1302    0.0000 H   0  0  0  0  0  0  0  0  0  0  0  0
   12.2496    2.8752    0.0000 H   0  0  0  0  0  0  0  0  0  0  0  0
    4.5981   -1.9290    0.0000 H   0  0  0  0  0  0  0  0  0  0  0  0
    5.2087   -0.4167    0.0000 H   0  0  0  0  0  0  0  0  0  0  0  0
    4.8101    0.2736    0.0000 H   0  0  0  0  0  0  0  0  0  0  0  0
    3.3335   -2.2840    0.0000 H   0  0  0  0  0  0  0  0  0  0  0  0
    4.1306   -2.2840    0.0000 H   0  0  0  0  0  0  0  0  0  0  0  0
    4.1306    0.6659    0.0000 H   0  0  0  0  0  0  0  0  0  0  0  0
    3.3335    0.6659    0.0000 H   0  0  0  0  0  0  0  0  0  0  0  0
    2.2554   -1.2014    0.0000 H   0  0  0  0  0  0  0  0  0  0  0  0
    2.6540   -1.8916    0.0000 H   0  0  0  0  0  0  0  0  0  0  0  0
   12.1938   -2.7569    0.0000 H   0  0  0  0  0  0  0  0  0  0  0  0
   12.9758   -3.1536    0.0000 H   0  0  0  0  0  0  0  0  0  0  0  0
   13.3725   -2.3717    0.0000 H   0  0  0  0  0  0  0  0  0  0  0  0
   10.6603   -2.4290    0.0000 H   0  0  0  0  0  0  0  0  0  0  0  0
    2.3100    0.7279    0.0000 H   0  0  0  0  0  0  0  0  0  0  0  0
    1.4631    0.5010    0.0000 H   0  0  0  0  0  0  0  0  0  0  0  0
    1.6900   -0.3460    0.0000 H   0  0  0  0  0  0  0  0  0  0  0  0
    8.9282    0.8110    0.0000 H   0  0  0  0  0  0  0  0  0  0  0  0
    5.7932    0.0010    0.0000 H   0  0  0  0  0  0  0  0  0  0  0  0
    7.1962   -2.4290    0.0000 H   0  0  0  0  0  0  0  0  0  0  0  0
    8.5991   -1.6190    0.0000 H   0  0  0  0  0  0  0  0  0  0  0  0
    6.6401    2.2279    0.0000 H   0  0  0  0  0  0  0  0  0  0  0  0
    5.7932    2.0010    0.0000 H   0  0  0  0  0  0  0  0  0  0  0  0
    6.0201    1.1540    0.0000 H   0  0  0  0  0  0  0  0  0  0  0  0
  1 17  1  0  0  0  0
  1 27  1  0  0  0  0
  2 16  2  0  0  0  0
  3 31  1  0  0  0  0
  3 33  1  0  0  0  0
  4 10  1  0  0  0  0
  4 15  1  0  0  0  0
  4 16  1  0  0  0  0
  5 16  1  0  0  0  0
  5 18  1  0  0  0  0
  5 23  1  0  0  0  0
  6 21  1  0  0  0  0
  6 22  1  0  0  0  0
  6 25  1  0  0  0  0
  7 15  2  0  0  0  0
  7 26  1  0  0  0  0
  8 24  1  0  0  0  0
  8 26  2  0  0  0  0
  9 26  1  0  0  0  0
  9 28  1  0  0  0  0
  9 59  1  0  0  0  0
 10 11  1  0  0  0  0
 10 12  1  0  0  0  0
 10 34  1  0  0  0  0
 11 14  1  0  0  0  0
 11 35  1  0  0  0  0
 11 36  1  0  0  0  0
 12 13  1  0  0  0  0
 12 37  1  0  0  0  0
 12 38  1  0  0  0  0
 13 14  1  0  0  0  0
 13 41  1  0  0  0  0
 13 42  1  0  0  0  0
 14 39  1  0  0  0  0
 14 40  1  0  0  0  0
 15 18  1  0  0  0  0
 17 19  1  0  0  0  0
 17 20  1  0  0  0  0
 17 43  1  0  0  0  0
 18 24  2  0  0  0  0
 19 21  1  0  0  0  0
 19 46  1  0  0  0  0
 19 47  1  0  0  0  0
 20 22  1  0  0  0  0
 20 44  1  0  0  0  0
 20 45  1  0  0  0  0
 21 50  1  0  0  0  0
 21 51  1  0  0  0  0
 22 48  1  0  0  0  0
 22 49  1  0  0  0  0
 23 52  1  0  0  0  0
 23 53  1  0  0  0  0
 23 54  1  0  0  0  0
 24 55  1  0  0  0  0
 25 56  1  0  0  0  0
 25 57  1  0  0  0  0
 25 58  1  0  0  0  0
 27 29  2  0  0  0  0
 27 30  1  0  0  0  0
 28 31  2  0  0  0  0
 28 32  1  0  0  0  0
 29 31  1  0  0  0  0
 29 60  1  0  0  0  0
 30 32  2  0  0  0  0
 30 61  1  0  0  0  0
 32 62  1  0  0  0  0
 33 63  1  0  0  0  0
 33 64  1  0  0  0  0
 33 65  1  0  0  0  0
M  END
> <PUBCHEM_COMPOUND_CID>
56973724

> <PUBCHEM_COMPOUND_CANONICALIZED>
1

> <PUBCHEM_CACTVS_COMPLEXITY>
669

> <PUBCHEM_CACTVS_HBOND_ACCEPTOR>
7

> <PUBCHEM_CACTVS_HBOND_DONOR>
1

> <PUBCHEM_CACTVS_ROTATABLE_BOND>
6

> <PUBCHEM_CACTVS_SUBSKEYS>
AAADcfB7sAAAAAAAAAAAAAAAAAAAAeIAAAA8WIAAAAAAAFgBwAAAHgAQAAAACDzhkgY/9pfIFACoADZndACCiCkxMqAJ2CAvfJiOb6LE+duXPCjv1xfY6CewYAwAAEAACAAAEAAAgAAQAAAgAAAAAAAAAA==

> <PUBCHEM_IUPAC_OPENEYE_NAME>
9-cyclopentyl-2-[2-methoxy-4-[(1-methyl-4-piperidyl)oxy]anilino]-7-methyl-purin-8-one

> <PUBCHEM_IUPAC_CAS_NAME>
9-cyclopentyl-2-[2-methoxy-4-[(1-methyl-4-piperidinyl)oxy]anilino]-7-methyl-8-purinone

> <PUBCHEM_IUPAC_NAME>
9-cyclopentyl-2-[2-methoxy-4-(1-methylpiperidin-4-yl)oxyanilino]-7-methylpurin-8-one

> <PUBCHEM_IUPAC_SYSTEMATIC_NAME>
9-cyclopentyl-2-[[2-methoxy-4-(1-methylpiperidin-4-yl)oxy-phenyl]amino]-7-methyl-purin-8-one

> <PUBCHEM_IUPAC_TRADITIONAL_NAME>
9-cyclopentyl-2-[2-methoxy-4-[(1-methyl-4-piperidyl)oxy]anilino]-7-methyl-purin-8-one

> <PUBCHEM_IUPAC_INCHI>
InChI=1S/C24H32N6O3/c1-28-12-10-17(11-13-28)33-18-8-9-19(21(14-18)32-3)26-23-25-15-20-22(27-23)30(24(31)29(20)2)16-6-4-5-7-16/h8-9,14-17H,4-7,10-13H2,1-3H3,(H,25,26,27)

> <PUBCHEM_IUPAC_INCHIKEY>
YUKWVHPTFRQHMF-UHFFFAOYSA-N

> <PUBCHEM_XLOGP3_AA>
3.2

> <PUBCHEM_EXACT_MASS>
452.253589

> <PUBCHEM_MOLECULAR_FORMULA>
C24H32N6O3

> <PUBCHEM_MOLECULAR_WEIGHT>
452.54928

> <PUBCHEM_OPENEYE_CAN_SMILES>
CN1CCC(CC1)OC2=CC(=C(C=C2)NC3=NC=C4C(=N3)N(C(=O)N4C)C5CCCC5)OC

> <PUBCHEM_OPENEYE_ISO_SMILES>
CN1CCC(CC1)OC2=CC(=C(C=C2)NC3=NC=C4C(=N3)N(C(=O)N4C)C5CCCC5)OC

> <PUBCHEM_CACTVS_TPSA>
83.1

> <PUBCHEM_MONOISOTOPIC_WEIGHT>
452.253589

> <PUBCHEM_TOTAL_CHARGE>
0

> <PUBCHEM_HEAVY_ATOM_COUNT>
33

> <PUBCHEM_ATOM_DEF_STEREO_COUNT>
0

> <PUBCHEM_ATOM_UDEF_STEREO_COUNT>
0

> <PUBCHEM_BOND_DEF_STEREO_COUNT>
0

> <PUBCHEM_BOND_UDEF_STEREO_COUNT>
0

> <PUBCHEM_ISOTOPIC_ATOM_COUNT>
0

> <PUBCHEM_COMPONENT_COUNT>
1

> <PUBCHEM_CACTVS_TAUTO_COUNT>
3

> <PUBCHEM_COORDINATE_TYPE>
1
5
255

> <PUBCHEM_BONDANNOTATIONS>
15  18  8
18  24  8
27  29  8
27  30  8
28  31  8
28  32  8
29  31  8
30  32  8
4  15  8
4  16  8
5  16  8
5  18  8
7  15  8
7  26  8
8  24  8
8  26  8

$$$$
57519543
  -OEChem-11121519512D

 61 67  0     1  0  0  0  0  0999 V2000
    2.3789    0.8551    0.0000 O   0  0  0  0  0  0  0  0  0  0  0  0
   13.3396   -2.1327    0.0000 O   0  0  0  0  0  0  0  0  0  0  0  0
    4.0271    1.3875    0.0000 N   0  0  0  0  0  0  0  0  0  0  0  0
    5.7842   -1.1187    0.0000 N   0  0  0  0  0  0  0  0  0  0  0  0
    5.7842   -2.7282    0.0000 N   0  0  0  0  0  0  0  0  0  0  0  0
    3.1059   -2.4235    0.0000 N   0  0  0  0  0  0  0  0  0  0  0  0
    2.7420    2.5487    0.0000 C   0  0  0  0  0  0  0  0  0  0  0  0
    2.9516    3.5265    0.0000 C   0  0  0  0  0  0  0  0  0  0  0  0
    2.0000    3.2191    0.0000 C   0  0  0  0  0  0  0  0  0  0  0  0
    5.4270    0.5761    0.0000 C   0  0  1  0  0  0  0  0  0  0  0  0
    4.4323    0.4733    0.0000 C   0  0  0  0  0  0  0  0  0  0  0  0
    5.6366    1.5539    0.0000 C   0  0  0  0  0  0  0  0  0  0  0  0
    3.0494    1.5971    0.0000 C   0  0  0  0  0  0  0  0  0  0  0  0
    4.7714    2.0554    0.0000 C   0  0  0  0  0  0  0  0  0  0  0  0
    6.0948   -0.1682    0.0000 C   0  0  0  0  0  0  0  0  0  0  0  0
    4.8380   -1.4235    0.0000 C   0  0  0  0  0  0  0  0  0  0  0  0
    6.3678   -1.9235    0.0000 C   0  0  0  0  0  0  0  0  0  0  0  0
    4.8380   -2.4235    0.0000 C   0  0  0  0  0  0  0  0  0  0  0  0
    7.3678   -1.9235    0.0000 C   0  0  0  0  0  0  0  0  0  0  0  0
    3.9719   -0.9235    0.0000 C   0  0  0  0  0  0  0  0  0  0  0  0
    3.9719   -2.9235    0.0000 C   0  0  0  0  0  0  0  0  0  0  0  0
    7.8678   -1.0574    0.0000 C   0  0  0  0  0  0  0  0  0  0  0  0
    7.8678   -2.7895    0.0000 C   0  0  0  0  0  0  0  0  0  0  0  0
    3.1059   -1.4235    0.0000 C   0  0  0  0  0  0  0  0  0  0  0  0
    8.8678   -1.0574    0.0000 C   0  0  0  0  0  0  0  0  0  0  0  0
    8.8678   -2.7895    0.0000 C   0  0  0  0  0  0  0  0  0  0  0  0
    9.3678   -1.9235    0.0000 C   0  0  0  0  0  0  0  0  0  0  0  0
   10.3678   -1.9235    0.0000 C   0  0  0  0  0  0  0  0  0  0  0  0
   10.8678   -2.7895    0.0000 C   0  0  0  0  0  0  0  0  0  0  0  0
   10.8678   -1.0574    0.0000 C   0  0  0  0  0  0  0  0  0  0  0  0
   11.8678   -2.7895    0.0000 C   0  0  0  0  0  0  0  0  0  0  0  0
   12.3678   -1.9235    0.0000 C   0  0  0  0  0  0  0  0  0  0  0  0
   11.8678   -1.0574    0.0000 C   0  0  0  0  0  0  0  0  0  0  0  0
   12.5349   -3.5265    0.0000 C   0  0  0  0  0  0  0  0  0  0  0  0
   13.4427   -3.1214    0.0000 C   0  0  0  0  0  0  0  0  0  0  0  0
    3.3612    2.5801    0.0000 H   0  0  0  0  0  0  0  0  0  0  0  0
    3.5712    3.5038    0.0000 H   0  0  0  0  0  0  0  0  0  0  0  0
    2.8664    4.1406    0.0000 H   0  0  0  0  0  0  0  0  0  0  0  0
    1.7099    3.7671    0.0000 H   0  0  0  0  0  0  0  0  0  0  0  0
    1.5108    2.8383    0.0000 H   0  0  0  0  0  0  0  0  0  0  0  0
    6.0262    0.7355    0.0000 H   0  0  0  0  0  0  0  0  0  0  0  0
    3.8423    0.2827    0.0000 H   0  0  0  0  0  0  0  0  0  0  0  0
    4.5602   -0.1334    0.0000 H   0  0  0  0  0  0  0  0  0  0  0  0
    6.2259    1.3613    0.0000 H   0  0  0  0  0  0  0  0  0  0  0  0
    5.8898    2.1198    0.0000 H   0  0  0  0  0  0  0  0  0  0  0  0
    5.1367    2.5563    0.0000 H   0  0  0  0  0  0  0  0  0  0  0  0
    4.3114    2.4710    0.0000 H   0  0  0  0  0  0  0  0  0  0  0  0
    6.6418   -0.4602    0.0000 H   0  0  0  0  0  0  0  0  0  0  0  0
    6.4774    0.3197    0.0000 H   0  0  0  0  0  0  0  0  0  0  0  0
    3.9719   -0.3035    0.0000 H   0  0  0  0  0  0  0  0  0  0  0  0
    3.9719   -3.5435    0.0000 H   0  0  0  0  0  0  0  0  0  0  0  0
    7.5578   -0.5205    0.0000 H   0  0  0  0  0  0  0  0  0  0  0  0
    7.5578   -3.3264    0.0000 H   0  0  0  0  0  0  0  0  0  0  0  0
    2.5690   -1.1135    0.0000 H   0  0  0  0  0  0  0  0  0  0  0  0
    9.1778   -0.5205    0.0000 H   0  0  0  0  0  0  0  0  0  0  0  0
    9.1778   -3.3264    0.0000 H   0  0  0  0  0  0  0  0  0  0  0  0
   10.5578   -3.3264    0.0000 H   0  0  0  0  0  0  0  0  0  0  0  0
   10.5578   -0.5205    0.0000 H   0  0  0  0  0  0  0  0  0  0  0  0
   12.1778   -0.5205    0.0000 H   0  0  0  0  0  0  0  0  0  0  0  0
   12.4070   -4.1332    0.0000 H   0  0  0  0  0  0  0  0  0  0  0  0
   13.9796   -3.4314    0.0000 H   0  0  0  0  0  0  0  0  0  0  0  0
  1 13  2  0  0  0  0
  2 32  1  0  0  0  0
  2 35  1  0  0  0  0
  3 11  1  0  0  0  0
  3 13  1  0  0  0  0
  3 14  1  0  0  0  0
  4 15  1  0  0  0  0
  4 16  1  0  0  0  0
  4 17  1  0  0  0  0
  5 17  2  0  0  0  0
  5 18  1  0  0  0  0
  6 21  2  0  0  0  0
  6 24  1  0  0  0  0
  7  8  1  0  0  0  0
  7  9  1  0  0  0  0
  7 13  1  0  0  0  0
  7 36  1  0  0  0  0
  8  9  1  0  0  0  0
  8 37  1  0  0  0  0
  8 38  1  0  0  0  0
  9 39  1  0  0  0  0
  9 40  1  0  0  0  0
 10 11  1  0  0  0  0
 10 12  1  0  0  0  0
 10 15  1  1  0  0  0
 10 41  1  0  0  0  0
 11 42  1  0  0  0  0
 11 43  1  0  0  0  0
 12 14  1  0  0  0  0
 12 44  1  0  0  0  0
 12 45  1  0  0  0  0
 14 46  1  0  0  0  0
 14 47  1  0  0  0  0
 15 48  1  0  0  0  0
 15 49  1  0  0  0  0
 16 18  2  0  0  0  0
 16 20  1  0  0  0  0
 17 19  1  0  0  0  0
 18 21  1  0  0  0  0
 19 22  2  0  0  0  0
 19 23  1  0  0  0  0
 20 24  2  0  0  0  0
 20 50  1  0  0  0  0
 21 51  1  0  0  0  0
 22 25  1  0  0  0  0
 22 52  1  0  0  0  0
 23 26  2  0  0  0  0
 23 53  1  0  0  0  0
 24 54  1  0  0  0  0
 25 27  2  0  0  0  0
 25 55  1  0  0  0  0
 26 27  1  0  0  0  0
 26 56  1  0  0  0  0
 27 28  1  0  0  0  0
 28 29  2  0  0  0  0
 28 30  1  0  0  0  0
 29 31  1  0  0  0  0
 29 57  1  0  0  0  0
 30 33  2  0  0  0  0
 30 58  1  0  0  0  0
 31 32  2  0  0  0  0
 31 34  1  0  0  0  0
 32 33  1  0  0  0  0
 33 59  1  0  0  0  0
 34 35  2  0  0  0  0
 34 60  1  0  0  0  0
 35 61  1  0  0  0  0
M  END
> <PUBCHEM_COMPOUND_CID>
57519543

> <PUBCHEM_COMPOUND_CANONICALIZED>
1

> <PUBCHEM_CACTVS_COMPLEXITY>
766

> <PUBCHEM_CACTVS_HBOND_ACCEPTOR>
4

> <PUBCHEM_CACTVS_HBOND_DONOR>
0

> <PUBCHEM_CACTVS_ROTATABLE_BOND>
5

> <PUBCHEM_CACTVS_SUBSKEYS>
AAADceB7sAAAAAAAAAAAAAAAGAAAAWLEgAA8YIAAAAAAAFgB/gAAHgAAAAAADQzhnwY91vcMFECoA7939ACCiC01MqAJ2CE+fNiMbvLE/duWPSjsxhPI6aeYyPCO4AACAAAIAADAAAQAABAAAAAAAAAAAA==

> <PUBCHEM_IUPAC_OPENEYE_NAME>
[(3S)-3-[[2-[4-(benzofuran-5-yl)phenyl]imidazo[4,5-c]pyridin-1-yl]methyl]pyrrolidin-1-yl]-cyclopropyl-methanone

> <PUBCHEM_IUPAC_CAS_NAME>
[(3S)-3-[[2-[4-(5-benzofuranyl)phenyl]-1-imidazo[4,5-c]pyridinyl]methyl]-1-pyrrolidinyl]-cyclopropylmethanone

> <PUBCHEM_IUPAC_NAME>
[(3S)-3-[[2-[4-(1-benzofuran-5-yl)phenyl]imidazo[4,5-c]pyridin-1-yl]methyl]pyrrolidin-1-yl]-cyclopropylmethanone

> <PUBCHEM_IUPAC_SYSTEMATIC_NAME>
[(3S)-3-[[2-[4-(1-benzofuran-5-yl)phenyl]imidazo[4,5-c]pyridin-1-yl]methyl]pyrrolidin-1-yl]-cyclopropyl-methanone

> <PUBCHEM_IUPAC_TRADITIONAL_NAME>
[(3S)-3-[[2-[4-(benzofuran-5-yl)phenyl]imidazo[4,5-c]pyridin-1-yl]methyl]pyrrolidino]-cyclopropyl-methanone

> <PUBCHEM_IUPAC_INCHI>
InChI=1S/C29H26N4O2/c34-29(22-5-6-22)32-13-10-19(17-32)18-33-26-9-12-30-16-25(26)31-28(33)21-3-1-20(2-4-21)23-7-8-27-24(15-23)11-14-35-27/h1-4,7-9,11-12,14-16,19,22H,5-6,10,13,17-18H2/t19-/m1/s1

> <PUBCHEM_IUPAC_INCHIKEY>
MXQGGBTXHJSPPG-LJQANCHMSA-N

> <PUBCHEM_XLOGP3_AA>
4.3

> <PUBCHEM_EXACT_MASS>
462.205576

> <PUBCHEM_MOLECULAR_FORMULA>
C29H26N4O2

> <PUBCHEM_MOLECULAR_WEIGHT>
462.54234

> <PUBCHEM_OPENEYE_CAN_SMILES>
C1CC1C(=O)N2CCC(C2)CN3C4=C(C=NC=C4)N=C3C5=CC=C(C=C5)C6=CC7=C(C=C6)OC=C7

> <PUBCHEM_OPENEYE_ISO_SMILES>
C1CN(C[C@@H]1CN2C3=C(C=NC=C3)N=C2C4=CC=C(C=C4)C5=CC6=C(C=C5)OC=C6)C(=O)C7CC7

> <PUBCHEM_CACTVS_TPSA>
64.2

> <PUBCHEM_MONOISOTOPIC_WEIGHT>
462.205576

> <PUBCHEM_TOTAL_CHARGE>
0

> <PUBCHEM_HEAVY_ATOM_COUNT>
35

> <PUBCHEM_ATOM_DEF_STEREO_COUNT>
1

> <PUBCHEM_ATOM_UDEF_STEREO_COUNT>
0

> <PUBCHEM_BOND_DEF_STEREO_COUNT>
0

> <PUBCHEM_BOND_UDEF_STEREO_COUNT>
0

> <PUBCHEM_ISOTOPIC_ATOM_COUNT>
0

> <PUBCHEM_COMPONENT_COUNT>
1

> <PUBCHEM_CACTVS_TAUTO_COUNT>
1

> <PUBCHEM_COORDINATE_TYPE>
1
5
255

> <PUBCHEM_BONDANNOTATIONS>
10  15  5
16  18  8
16  20  8
18  21  8
19  22  8
19  23  8
2  32  8
2  35  8
20  24  8
22  25  8
23  26  8
25  27  8
26  27  8
28  29  8
28  30  8
29  31  8
30  33  8
31  32  8
31  34  8
32  33  8
34  35  8
4  16  8
4  17  8
5  17  8
5  18  8
6  21  8
6  24  8

$$$$
58423153
  -OEChem-11121519512D

 48 51  0     1  0  0  0  0  0999 V2000
    4.0948   -1.9965    0.0000 S   0  0  0  0  0  0  0  0  0  0  0  0
    3.0778    0.3829    0.0000 O   0  0  0  0  0  0  0  0  0  0  0  0
    2.7099   -3.1180    0.0000 O   0  0  0  0  0  0  0  0  0  0  0  0
    6.7974    0.4980    0.0000 N   0  0  3  0  0  0  0  0  0  0  0  0
    8.5294    2.4980    0.0000 N   0  0  0  0  0  0  0  0  0  0  0  0
    2.6166   -1.3384    0.0000 N   0  0  0  0  0  0  0  0  0  0  0  0
    7.6634    1.9980    0.0000 C   0  0  1  0  0  0  0  0  0  0  0  0
    7.6634    0.9980    0.0000 C   0  0  0  0  0  0  0  0  0  0  0  0
    6.7974    2.4980    0.0000 C   0  0  0  0  0  0  0  0  0  0  0  0
    5.9313    1.9980    0.0000 C   0  0  0  0  0  0  0  0  0  0  0  0
    5.9313    0.9980    0.0000 C   0  0  0  0  0  0  0  0  0  0  0  0
    6.7974   -0.5020    0.0000 C   0  0  0  0  0  0  0  0  0  0  0  0
    7.6634   -1.0020    0.0000 C   0  0  0  0  0  0  0  0  0  0  0  0
    5.9313   -1.0020    0.0000 C   0  0  0  0  0  0  0  0  0  0  0  0
    7.6634   -2.0020    0.0000 C   0  0  0  0  0  0  0  0  0  0  0  0
    8.5294   -0.5020    0.0000 C   0  0  0  0  0  0  0  0  0  0  0  0
    5.9313   -2.0020    0.0000 C   0  0  0  0  0  0  0  0  0  0  0  0
    5.0653   -0.5020    0.0000 C   0  0  0  0  0  0  0  0  0  0  0  0
    6.7974   -2.5020    0.0000 C   0  0  0  0  0  0  0  0  0  0  0  0
    8.5294    0.4980    0.0000 C   0  0  0  0  0  0  0  0  0  0  0  0
    9.3954   -1.0020    0.0000 C   0  0  0  0  0  0  0  0  0  0  0  0
    4.1993   -1.0020    0.0000 C   0  0  0  0  0  0  0  0  0  0  0  0
    9.3954    0.9980    0.0000 C   0  0  0  0  0  0  0  0  0  0  0  0
   10.2615   -0.5020    0.0000 C   0  0  0  0  0  0  0  0  0  0  0  0
    3.2857   -0.5953    0.0000 C   0  0  0  0  0  0  0  0  0  0  0  0
   10.2615    0.4980    0.0000 C   0  0  0  0  0  0  0  0  0  0  0  0
    3.1166   -2.2044    0.0000 C   0  0  0  0  0  0  0  0  0  0  0  0
    7.6634    2.6180    0.0000 H   0  0  0  0  0  0  0  0  0  0  0  0
    7.8754    0.4154    0.0000 H   0  0  0  0  0  0  0  0  0  0  0  0
    8.2740    1.1056    0.0000 H   0  0  0  0  0  0  0  0  0  0  0  0
    7.1959    2.9729    0.0000 H   0  0  0  0  0  0  0  0  0  0  0  0
    6.3988    2.9729    0.0000 H   0  0  0  0  0  0  0  0  0  0  0  0
    5.7193    2.5806    0.0000 H   0  0  0  0  0  0  0  0  0  0  0  0
    5.3208    1.8903    0.0000 H   0  0  0  0  0  0  0  0  0  0  0  0
    5.3208    1.1056    0.0000 H   0  0  0  0  0  0  0  0  0  0  0  0
    5.7193    0.4154    0.0000 H   0  0  0  0  0  0  0  0  0  0  0  0
    8.5294    3.1180    0.0000 H   0  0  0  0  0  0  0  0  0  0  0  0
    9.0663    2.1880    0.0000 H   0  0  0  0  0  0  0  0  0  0  0  0
    8.2003   -2.3120    0.0000 H   0  0  0  0  0  0  0  0  0  0  0  0
    5.3944   -2.3120    0.0000 H   0  0  0  0  0  0  0  0  0  0  0  0
    5.0653    0.1180    0.0000 H   0  0  0  0  0  0  0  0  0  0  0  0
    6.7974   -3.1220    0.0000 H   0  0  0  0  0  0  0  0  0  0  0  0
    7.9925    0.8080    0.0000 H   0  0  0  0  0  0  0  0  0  0  0  0
    9.3954   -1.6220    0.0000 H   0  0  0  0  0  0  0  0  0  0  0  0
    9.3954    1.6180    0.0000 H   0  0  0  0  0  0  0  0  0  0  0  0
   10.7984   -0.8120    0.0000 H   0  0  0  0  0  0  0  0  0  0  0  0
   10.7984    0.8080    0.0000 H   0  0  0  0  0  0  0  0  0  0  0  0
    2.0000   -1.2736    0.0000 H   0  0  0  0  0  0  0  0  0  0  0  0
  1 22  1  0  0  0  0
  1 27  1  0  0  0  0
  2 25  2  0  0  0  0
  3 27  2  0  0  0  0
  4  8  1  0  0  0  0
  4 11  1  0  0  0  0
  4 12  1  0  0  0  0
  7  5  1  1  0  0  0
  5 37  1  0  0  0  0
  5 38  1  0  0  0  0
  6 25  1  0  0  0  0
  6 27  1  0  0  0  0
  6 48  1  0  0  0  0
  7  8  1  0  0  0  0
  7  9  1  0  0  0  0
  7 28  1  0  0  0  0
  8 29  1  0  0  0  0
  8 30  1  0  0  0  0
  9 10  1  0  0  0  0
  9 31  1  0  0  0  0
  9 32  1  0  0  0  0
 10 11  1  0  0  0  0
 10 33  1  0  0  0  0
 10 34  1  0  0  0  0
 11 35  1  0  0  0  0
 11 36  1  0  0  0  0
 12 13  1  0  0  0  0
 12 14  2  0  0  0  0
 13 15  2  0  0  0  0
 13 16  1  0  0  0  0
 14 17  1  0  0  0  0
 14 18  1  0  0  0  0
 15 19  1  0  0  0  0
 15 39  1  0  0  0  0
 16 20  2  0  0  0  0
 16 21  1  0  0  0  0
 17 19  2  0  0  0  0
 17 40  1  0  0  0  0
 18 22  2  0  0  0  0
 18 41  1  0  0  0  0
 19 42  1  0  0  0  0
 20 23  1  0  0  0  0
 20 43  1  0  0  0  0
 21 24  2  0  0  0  0
 21 44  1  0  0  0  0
 22 25  1  0  0  0  0
 23 26  2  0  0  0  0
 23 45  1  0  0  0  0
 24 26  1  0  0  0  0
 24 46  1  0  0  0  0
 26 47  1  0  0  0  0
M  END
> <PUBCHEM_COMPOUND_CID>
58423153

> <PUBCHEM_COMPOUND_CANONICALIZED>
1

> <PUBCHEM_CACTVS_COMPLEXITY>
602

> <PUBCHEM_CACTVS_HBOND_ACCEPTOR>
5

> <PUBCHEM_CACTVS_HBOND_DONOR>
2

> <PUBCHEM_CACTVS_ROTATABLE_BOND>
3

> <PUBCHEM_CACTVS_SUBSKEYS>
AAADceB7MABAAAAAAAAAAAAAAAAAAWAAAAA8YIAAAAAAAAABQAAAHgQQAAAADCjB2AQwwIPAAAiIAiVSUACCAABhABAIiIAIRMgIYCLAkZGUIAhglCDIyYcQgMAOgAACAAACAAAAAAQAAAQAAAAAAAAAAA==

> <PUBCHEM_IUPAC_OPENEYE_NAME>
(5Z)-5-[[2-[(3R)-3-amino-1-piperidyl]-3-phenyl-phenyl]methylene]thiazolidine-2,4-dione

> <PUBCHEM_IUPAC_CAS_NAME>
(5Z)-5-[[2-[(3R)-3-amino-1-piperidinyl]-3-phenylphenyl]methylidene]thiazolidine-2,4-dione

> <PUBCHEM_IUPAC_NAME>
(5Z)-5-[[2-[(3R)-3-aminopiperidin-1-yl]-3-phenylphenyl]methylidene]-1,3-thiazolidine-2,4-dione

> <PUBCHEM_IUPAC_SYSTEMATIC_NAME>
(5Z)-5-[[2-[(3R)-3-azanylpiperidin-1-yl]-3-phenyl-phenyl]methylidene]-1,3-thiazolidine-2,4-dione

> <PUBCHEM_IUPAC_TRADITIONAL_NAME>
(5Z)-5-[2-[(3R)-3-aminopiperidino]-3-phenyl-benzylidene]thiazolidine-2,4-quinone

> <PUBCHEM_IUPAC_INCHI>
InChI=1S/C21H21N3O2S/c22-16-9-5-11-24(13-16)19-15(12-18-20(25)23-21(26)27-18)8-4-10-17(19)14-6-2-1-3-7-14/h1-4,6-8,10,12,16H,5,9,11,13,22H2,(H,23,25,26)/b18-12-/t16-/m1/s1

> <PUBCHEM_IUPAC_INCHIKEY>
MCUJKPPARUPFJM-UWCCDQBKSA-N

> <PUBCHEM_XLOGP3_AA>
3.6

> <PUBCHEM_EXACT_MASS>
379.135448

> <PUBCHEM_MOLECULAR_FORMULA>
C21H21N3O2S

> <PUBCHEM_MOLECULAR_WEIGHT>
379.47534

> <PUBCHEM_OPENEYE_CAN_SMILES>
C1CC(CN(C1)C2=C(C=CC=C2C=C3C(=O)NC(=O)S3)C4=CC=CC=C4)N

> <PUBCHEM_OPENEYE_ISO_SMILES>
C1C[C@H](CN(C1)C2=C(C=CC=C2/C=C\3/C(=O)NC(=O)S3)C4=CC=CC=C4)N

> <PUBCHEM_CACTVS_TPSA>
101

> <PUBCHEM_MONOISOTOPIC_WEIGHT>
379.135448

> <PUBCHEM_TOTAL_CHARGE>
0

> <PUBCHEM_HEAVY_ATOM_COUNT>
27

> <PUBCHEM_ATOM_DEF_STEREO_COUNT>
1

> <PUBCHEM_ATOM_UDEF_STEREO_COUNT>
0

> <PUBCHEM_BOND_DEF_STEREO_COUNT>
1

> <PUBCHEM_BOND_UDEF_STEREO_COUNT>
0

> <PUBCHEM_ISOTOPIC_ATOM_COUNT>
0

> <PUBCHEM_COMPONENT_COUNT>
1

> <PUBCHEM_CACTVS_TAUTO_COUNT>
3

> <PUBCHEM_COORDINATE_TYPE>
1
5
255

> <PUBCHEM_BONDANNOTATIONS>
12  13  8
12  14  8
13  15  8
14  17  8
15  19  8
16  20  8
16  21  8
17  19  8
20  23  8
21  24  8
23  26  8
24  26  8
7  5  5

$$$$
68591670
  -OEChem-11121519512D

 60 64  0     0  0  0  0  0  0999 V2000
    3.3426   -2.7349    0.0000 F   0  0  0  0  0  0  0  0  0  0  0  0
   10.7204    5.9004    0.0000 O   0  0  0  0  0  0  0  0  0  0  0  0
    9.2136   -1.4976    0.0000 O   0  0  0  0  0  0  0  0  0  0  0  0
    9.1206    3.7931    0.0000 N   0  0  0  0  0  0  0  0  0  0  0  0
    8.4993    1.8921    0.0000 N   0  0  0  0  0  0  0  0  0  0  0  0
    7.2566   -1.9100    0.0000 N   0  0  0  0  0  0  0  0  0  0  0  0
    3.7320   -4.5282    0.0000 N   0  0  0  0  0  0  0  0  0  0  0  0
    5.9674   -3.0668    0.0000 N   0  0  0  0  0  0  0  0  0  0  0  0
    5.6103   -1.3719    0.0000 N   0  0  0  0  0  0  0  0  0  0  0  0
    4.6783   -5.8330    0.0000 N   0  0  0  0  0  0  0  0  0  0  0  0
    8.1421    3.5869    0.0000 C   0  0  0  0  0  0  0  0  0  0  0  0
    9.7884    3.0488    0.0000 C   0  0  0  0  0  0  0  0  0  0  0  0
    9.4778    2.0983    0.0000 C   0  0  0  0  0  0  0  0  0  0  0  0
    7.8314    2.6364    0.0000 C   0  0  0  0  0  0  0  0  0  0  0  0
    9.4312    4.7436    0.0000 C   0  0  0  0  0  0  0  0  0  0  0  0
    8.1886    0.9415    0.0000 C   0  0  0  0  0  0  0  0  0  0  0  0
   10.4097    4.9498    0.0000 C   0  0  0  0  0  0  0  0  0  0  0  0
    8.8564    0.1972    0.0000 C   0  0  0  0  0  0  0  0  0  0  0  0
    7.2101    0.7353    0.0000 C   0  0  0  0  0  0  0  0  0  0  0  0
    8.5458   -0.7533    0.0000 C   0  0  0  0  0  0  0  0  0  0  0  0
    6.8994   -0.2152    0.0000 C   0  0  0  0  0  0  0  0  0  0  0  0
    7.5673   -0.9595    0.0000 C   0  0  0  0  0  0  0  0  0  0  0  0
    6.2781   -2.1162    0.0000 C   0  0  0  0  0  0  0  0  0  0  0  0
    4.6783   -4.2235    0.0000 C   0  0  0  0  0  0  0  0  0  0  0  0
    4.9889   -3.2730    0.0000 C   0  0  0  0  0  0  0  0  0  0  0  0
   10.1921   -1.2914    0.0000 C   0  0  0  0  0  0  0  0  0  0  0  0
    3.7320   -5.5282    0.0000 C   0  0  0  0  0  0  0  0  0  0  0  0
    5.2619   -5.0282    0.0000 C   0  0  0  0  0  0  0  0  0  0  0  0
    2.8660   -4.0282    0.0000 C   0  0  0  0  0  0  0  0  0  0  0  0
    4.3211   -2.5287    0.0000 C   0  0  0  0  0  0  0  0  0  0  0  0
    2.8660   -6.0282    0.0000 C   0  0  0  0  0  0  0  0  0  0  0  0
    4.6318   -1.5782    0.0000 C   0  0  0  0  0  0  0  0  0  0  0  0
    2.0000   -4.5282    0.0000 C   0  0  0  0  0  0  0  0  0  0  0  0
    2.0000   -5.5282    0.0000 C   0  0  0  0  0  0  0  0  0  0  0  0
   10.3353    2.7568    0.0000 H   0  0  0  0  0  0  0  0  0  0  0  0
   10.1710    3.5367    0.0000 H   0  0  0  0  0  0  0  0  0  0  0  0
    8.1215    4.2066    0.0000 H   0  0  0  0  0  0  0  0  0  0  0  0
    7.5283    3.6742    0.0000 H   0  0  0  0  0  0  0  0  0  0  0  0
    7.2845    2.9284    0.0000 H   0  0  0  0  0  0  0  0  0  0  0  0
    7.4489    2.1485    0.0000 H   0  0  0  0  0  0  0  0  0  0  0  0
    9.4983    1.4786    0.0000 H   0  0  0  0  0  0  0  0  0  0  0  0
   10.0916    2.0109    0.0000 H   0  0  0  0  0  0  0  0  0  0  0  0
    9.4107    5.3633    0.0000 H   0  0  0  0  0  0  0  0  0  0  0  0
    8.8174    4.8310    0.0000 H   0  0  0  0  0  0  0  0  0  0  0  0
   10.4303    4.3302    0.0000 H   0  0  0  0  0  0  0  0  0  0  0  0
   11.0236    4.8625    0.0000 H   0  0  0  0  0  0  0  0  0  0  0  0
    9.4631    0.3251    0.0000 H   0  0  0  0  0  0  0  0  0  0  0  0
    6.7960    1.1968    0.0000 H   0  0  0  0  0  0  0  0  0  0  0  0
    6.2928   -0.3430    0.0000 H   0  0  0  0  0  0  0  0  0  0  0  0
   11.3271    6.0282    0.0000 H   0  0  0  0  0  0  0  0  0  0  0  0
    7.6707   -2.3715    0.0000 H   0  0  0  0  0  0  0  0  0  0  0  0
   10.3200   -1.8980    0.0000 H   0  0  0  0  0  0  0  0  0  0  0  0
   10.7988   -1.1635    0.0000 H   0  0  0  0  0  0  0  0  0  0  0  0
   10.0643   -0.6847    0.0000 H   0  0  0  0  0  0  0  0  0  0  0  0
    5.8819   -5.0282    0.0000 H   0  0  0  0  0  0  0  0  0  0  0  0
    2.8660   -3.4082    0.0000 H   0  0  0  0  0  0  0  0  0  0  0  0
    2.8660   -6.6482    0.0000 H   0  0  0  0  0  0  0  0  0  0  0  0
    4.2177   -1.1167    0.0000 H   0  0  0  0  0  0  0  0  0  0  0  0
    1.4631   -4.2182    0.0000 H   0  0  0  0  0  0  0  0  0  0  0  0
    1.4631   -5.8382    0.0000 H   0  0  0  0  0  0  0  0  0  0  0  0
  1 30  1  0  0  0  0
  2 17  1  0  0  0  0
  2 50  1  0  0  0  0
  3 20  1  0  0  0  0
  3 26  1  0  0  0  0
  4 11  1  0  0  0  0
  4 12  1  0  0  0  0
  4 15  1  0  0  0  0
  5 13  1  0  0  0  0
  5 14  1  0  0  0  0
  5 16  1  0  0  0  0
  6 22  1  0  0  0  0
  6 23  1  0  0  0  0
  6 51  1  0  0  0  0
  7 24  1  0  0  0  0
  7 27  1  0  0  0  0
  7 29  1  0  0  0  0
  8 23  1  0  0  0  0
  8 25  2  0  0  0  0
  9 23  2  0  0  0  0
  9 32  1  0  0  0  0
 10 27  2  0  0  0  0
 10 28  1  0  0  0  0
 11 14  1  0  0  0  0
 11 37  1  0  0  0  0
 11 38  1  0  0  0  0
 12 13  1  0  0  0  0
 12 35  1  0  0  0  0
 12 36  1  0  0  0  0
 13 41  1  0  0  0  0
 13 42  1  0  0  0  0
 14 39  1  0  0  0  0
 14 40  1  0  0  0  0
 15 17  1  0  0  0  0
 15 43  1  0  0  0  0
 15 44  1  0  0  0  0
 16 18  2  0  0  0  0
 16 19  1  0  0  0  0
 17 45  1  0  0  0  0
 17 46  1  0  0  0  0
 18 20  1  0  0  0  0
 18 47  1  0  0  0  0
 19 21  2  0  0  0  0
 19 48  1  0  0  0  0
 20 22  2  0  0  0  0
 21 22  1  0  0  0  0
 21 49  1  0  0  0  0
 24 25  1  0  0  0  0
 24 28  2  0  0  0  0
 25 30  1  0  0  0  0
 26 52  1  0  0  0  0
 26 53  1  0  0  0  0
 26 54  1  0  0  0  0
 27 31  1  0  0  0  0
 28 55  1  0  0  0  0
 29 33  2  0  0  0  0
 29 56  1  0  0  0  0
 30 32  2  0  0  0  0
 31 34  2  0  0  0  0
 31 57  1  0  0  0  0
 32 58  1  0  0  0  0
 33 34  1  0  0  0  0
 33 59  1  0  0  0  0
 34 60  1  0  0  0  0
M  END
> <PUBCHEM_COMPOUND_CID>
68591670

> <PUBCHEM_COMPOUND_CANONICALIZED>
1

> <PUBCHEM_CACTVS_COMPLEXITY>
640

> <PUBCHEM_CACTVS_HBOND_ACCEPTOR>
9

> <PUBCHEM_CACTVS_HBOND_DONOR>
2

> <PUBCHEM_CACTVS_ROTATABLE_BOND>
7

> <PUBCHEM_CACTVS_SUBSKEYS>
AAADceB7sQAAAAAAAAAAAAAAAAAAAWAAAAA8WLEAAAAAAFgB/AAAHwAQCAAACAzhlw4/9p/MHgCgATZnZACCiC0xMqAJ2CA/fJiOfuLE+duVNChu0BvY6CeQUAMAAACAAgAAEAAAAQAEAAAgAAAAAAAAAA==

> <PUBCHEM_IUPAC_OPENEYE_NAME>
2-[4-[4-[(5-fluoro-4-imidazo[1,2-a]pyridin-3-yl-pyrimidin-2-yl)amino]-3-methoxy-phenyl]piperazin-1-yl]ethanol

> <PUBCHEM_IUPAC_CAS_NAME>
2-[4-[4-[[5-fluoro-4-(3-imidazo[1,2-a]pyridinyl)-2-pyrimidinyl]amino]-3-methoxyphenyl]-1-piperazinyl]ethanol

> <PUBCHEM_IUPAC_NAME>
2-[4-[4-[(5-fluoro-4-imidazo[1,2-a]pyridin-3-ylpyrimidin-2-yl)amino]-3-methoxyphenyl]piperazin-1-yl]ethanol

> <PUBCHEM_IUPAC_SYSTEMATIC_NAME>
2-[4-[4-[(5-fluoranyl-4-imidazo[1,2-a]pyridin-3-yl-pyrimidin-2-yl)amino]-3-methoxy-phenyl]piperazin-1-yl]ethanol

> <PUBCHEM_IUPAC_TRADITIONAL_NAME>
2-[4-[4-[(5-fluoro-4-imidazo[1,2-a]pyridin-3-yl-pyrimidin-2-yl)amino]-3-methoxy-phenyl]piperazino]ethanol

> <PUBCHEM_IUPAC_INCHI>
InChI=1S/C24H26FN7O2/c1-34-21-14-17(31-10-8-30(9-11-31)12-13-33)5-6-19(21)28-24-27-15-18(25)23(29-24)20-16-26-22-4-2-3-7-32(20)22/h2-7,14-16,33H,8-13H2,1H3,(H,27,28,29)

> <PUBCHEM_IUPAC_INCHIKEY>
BUBOMCNDHPTLAH-UHFFFAOYSA-N

> <PUBCHEM_XLOGP3_AA>
2.9

> <PUBCHEM_EXACT_MASS>
463.213201

> <PUBCHEM_MOLECULAR_FORMULA>
C24H26FN7O2

> <PUBCHEM_MOLECULAR_WEIGHT>
463.507343

> <PUBCHEM_OPENEYE_CAN_SMILES>
COC1=C(C=CC(=C1)N2CCN(CC2)CCO)NC3=NC=C(C(=N3)C4=CN=C5N4C=CC=C5)F

> <PUBCHEM_OPENEYE_ISO_SMILES>
COC1=C(C=CC(=C1)N2CCN(CC2)CCO)NC3=NC=C(C(=N3)C4=CN=C5N4C=CC=C5)F

> <PUBCHEM_CACTVS_TPSA>
91

> <PUBCHEM_MONOISOTOPIC_WEIGHT>
463.213201

> <PUBCHEM_TOTAL_CHARGE>
0

> <PUBCHEM_HEAVY_ATOM_COUNT>
34

> <PUBCHEM_ATOM_DEF_STEREO_COUNT>
0

> <PUBCHEM_ATOM_UDEF_STEREO_COUNT>
0

> <PUBCHEM_BOND_DEF_STEREO_COUNT>
0

> <PUBCHEM_BOND_UDEF_STEREO_COUNT>
0

> <PUBCHEM_ISOTOPIC_ATOM_COUNT>
0

> <PUBCHEM_COMPONENT_COUNT>
1

> <PUBCHEM_CACTVS_TAUTO_COUNT>
3

> <PUBCHEM_COORDINATE_TYPE>
1
5
255

> <PUBCHEM_BONDANNOTATIONS>
10  27  8
10  28  8
16  18  8
16  19  8
18  20  8
19  21  8
20  22  8
21  22  8
24  28  8
25  30  8
27  31  8
29  33  8
30  32  8
31  34  8
33  34  8
7  24  8
7  27  8
7  29  8
8  23  8
8  25  8
9  23  8
9  32  8

$$$$
68592449
  -OEChem-11121519512D

 63 67  0     1  0  0  0  0  0999 V2000
    3.3426   -2.7349    0.0000 Cl  0  0  0  0  0  0  0  0  0  0  0  0
    8.7634    5.4879    0.0000 O   0  0  0  0  0  0  0  0  0  0  0  0
   10.7204    5.9004    0.0000 O   0  0  0  0  0  0  0  0  0  0  0  0
    9.2136   -1.4976    0.0000 O   0  0  0  0  0  0  0  0  0  0  0  0
    9.1206    3.7931    0.0000 N   0  0  0  0  0  0  0  0  0  0  0  0
    7.2566   -1.9100    0.0000 N   0  0  0  0  0  0  0  0  0  0  0  0
    5.9674   -3.0668    0.0000 N   0  0  0  0  0  0  0  0  0  0  0  0
    3.7320   -4.5282    0.0000 N   0  0  0  0  0  0  0  0  0  0  0  0
    5.6103   -1.3719    0.0000 N   0  0  0  0  0  0  0  0  0  0  0  0
    4.6783   -5.8330    0.0000 N   0  0  0  0  0  0  0  0  0  0  0  0
    8.4993    1.8921    0.0000 C   0  0  0  0  0  0  0  0  0  0  0  0
    7.8314    2.6364    0.0000 C   0  0  0  0  0  0  0  0  0  0  0  0
    9.4778    2.0983    0.0000 C   0  0  0  0  0  0  0  0  0  0  0  0
    8.1421    3.5869    0.0000 C   0  0  0  0  0  0  0  0  0  0  0  0
    9.7884    3.0488    0.0000 C   0  0  0  0  0  0  0  0  0  0  0  0
    8.1886    0.9415    0.0000 C   0  0  0  0  0  0  0  0  0  0  0  0
    9.4312    4.7436    0.0000 C   0  0  0  0  0  0  0  0  0  0  0  0
    8.8564    0.1972    0.0000 C   0  0  0  0  0  0  0  0  0  0  0  0
    7.2101    0.7353    0.0000 C   0  0  0  0  0  0  0  0  0  0  0  0
   10.4097    4.9498    0.0000 C   0  0  1  0  0  0  0  0  0  0  0  0
    8.5458   -0.7533    0.0000 C   0  0  0  0  0  0  0  0  0  0  0  0
    6.8994   -0.2152    0.0000 C   0  0  0  0  0  0  0  0  0  0  0  0
    7.5673   -0.9595    0.0000 C   0  0  0  0  0  0  0  0  0  0  0  0
   11.0776    4.2056    0.0000 C   0  0  0  0  0  0  0  0  0  0  0  0
    6.2781   -2.1162    0.0000 C   0  0  0  0  0  0  0  0  0  0  0  0
   10.1921   -1.2914    0.0000 C   0  0  0  0  0  0  0  0  0  0  0  0
    4.9889   -3.2730    0.0000 C   0  0  0  0  0  0  0  0  0  0  0  0
    4.6783   -4.2235    0.0000 C   0  0  0  0  0  0  0  0  0  0  0  0
    3.7320   -5.5282    0.0000 C   0  0  0  0  0  0  0  0  0  0  0  0
    4.3211   -2.5287    0.0000 C   0  0  0  0  0  0  0  0  0  0  0  0
    5.2619   -5.0282    0.0000 C   0  0  0  0  0  0  0  0  0  0  0  0
    4.6318   -1.5782    0.0000 C   0  0  0  0  0  0  0  0  0  0  0  0
    2.8660   -4.0282    0.0000 C   0  0  0  0  0  0  0  0  0  0  0  0
    2.8660   -6.0282    0.0000 C   0  0  0  0  0  0  0  0  0  0  0  0
    2.0000   -4.5282    0.0000 C   0  0  0  0  0  0  0  0  0  0  0  0
    2.0000   -5.5282    0.0000 C   0  0  0  0  0  0  0  0  0  0  0  0
    7.8926    1.7642    0.0000 H   0  0  0  0  0  0  0  0  0  0  0  0
    9.4983    1.4786    0.0000 H   0  0  0  0  0  0  0  0  0  0  0  0
   10.0916    2.0109    0.0000 H   0  0  0  0  0  0  0  0  0  0  0  0
    7.2845    2.9284    0.0000 H   0  0  0  0  0  0  0  0  0  0  0  0
    7.4489    2.1485    0.0000 H   0  0  0  0  0  0  0  0  0  0  0  0
   10.3353    2.7568    0.0000 H   0  0  0  0  0  0  0  0  0  0  0  0
   10.1710    3.5367    0.0000 H   0  0  0  0  0  0  0  0  0  0  0  0
    8.1215    4.2066    0.0000 H   0  0  0  0  0  0  0  0  0  0  0  0
    7.5283    3.6742    0.0000 H   0  0  0  0  0  0  0  0  0  0  0  0
    9.4631    0.3251    0.0000 H   0  0  0  0  0  0  0  0  0  0  0  0
    6.7960    1.1968    0.0000 H   0  0  0  0  0  0  0  0  0  0  0  0
    9.9957    5.4113    0.0000 H   0  0  0  0  0  0  0  0  0  0  0  0
    6.2928   -0.3430    0.0000 H   0  0  0  0  0  0  0  0  0  0  0  0
   10.6161    3.7915    0.0000 H   0  0  0  0  0  0  0  0  0  0  0  0
   11.4917    3.7441    0.0000 H   0  0  0  0  0  0  0  0  0  0  0  0
   11.5391    4.6196    0.0000 H   0  0  0  0  0  0  0  0  0  0  0  0
    7.6707   -2.3715    0.0000 H   0  0  0  0  0  0  0  0  0  0  0  0
   11.3271    6.0282    0.0000 H   0  0  0  0  0  0  0  0  0  0  0  0
   10.3200   -1.8980    0.0000 H   0  0  0  0  0  0  0  0  0  0  0  0
   10.7988   -1.1635    0.0000 H   0  0  0  0  0  0  0  0  0  0  0  0
   10.0643   -0.6847    0.0000 H   0  0  0  0  0  0  0  0  0  0  0  0
    5.8819   -5.0282    0.0000 H   0  0  0  0  0  0  0  0  0  0  0  0
    4.2177   -1.1167    0.0000 H   0  0  0  0  0  0  0  0  0  0  0  0
    2.8660   -3.4082    0.0000 H   0  0  0  0  0  0  0  0  0  0  0  0
    2.8660   -6.6482    0.0000 H   0  0  0  0  0  0  0  0  0  0  0  0
    1.4631   -4.2182    0.0000 H   0  0  0  0  0  0  0  0  0  0  0  0
    1.4631   -5.8382    0.0000 H   0  0  0  0  0  0  0  0  0  0  0  0
  1 30  1  0  0  0  0
  2 17  2  0  0  0  0
 20  3  1  6  0  0  0
  3 54  1  0  0  0  0
  4 21  1  0  0  0  0
  4 26  1  0  0  0  0
  5 14  1  0  0  0  0
  5 15  1  0  0  0  0
  5 17  1  0  0  0  0
  6 23  1  0  0  0  0
  6 25  1  0  0  0  0
  6 53  1  0  0  0  0
  7 25  1  0  0  0  0
  7 27  2  0  0  0  0
  8 28  1  0  0  0  0
  8 29  1  0  0  0  0
  8 33  1  0  0  0  0
  9 25  2  0  0  0  0
  9 32  1  0  0  0  0
 10 29  2  0  0  0  0
 10 31  1  0  0  0  0
 11 12  1  0  0  0  0
 11 13  1  0  0  0  0
 11 16  1  0  0  0  0
 11 37  1  0  0  0  0
 12 14  1  0  0  0  0
 12 40  1  0  0  0  0
 12 41  1  0  0  0  0
 13 15  1  0  0  0  0
 13 38  1  0  0  0  0
 13 39  1  0  0  0  0
 14 44  1  0  0  0  0
 14 45  1  0  0  0  0
 15 42  1  0  0  0  0
 15 43  1  0  0  0  0
 16 18  2  0  0  0  0
 16 19  1  0  0  0  0
 17 20  1  0  0  0  0
 18 21  1  0  0  0  0
 18 46  1  0  0  0  0
 19 22  2  0  0  0  0
 19 47  1  0  0  0  0
 20 24  1  0  0  0  0
 20 48  1  0  0  0  0
 21 23  2  0  0  0  0
 22 23  1  0  0  0  0
 22 49  1  0  0  0  0
 24 50  1  0  0  0  0
 24 51  1  0  0  0  0
 24 52  1  0  0  0  0
 26 55  1  0  0  0  0
 26 56  1  0  0  0  0
 26 57  1  0  0  0  0
 27 28  1  0  0  0  0
 27 30  1  0  0  0  0
 28 31  2  0  0  0  0
 29 34  1  0  0  0  0
 30 32  2  0  0  0  0
 31 58  1  0  0  0  0
 32 59  1  0  0  0  0
 33 35  2  0  0  0  0
 33 60  1  0  0  0  0
 34 36  2  0  0  0  0
 34 61  1  0  0  0  0
 35 36  1  0  0  0  0
 35 62  1  0  0  0  0
 36 63  1  0  0  0  0
M  END
> <PUBCHEM_COMPOUND_CID>
68592449

> <PUBCHEM_COMPOUND_CANONICALIZED>
1

> <PUBCHEM_CACTVS_COMPLEXITY>
741

> <PUBCHEM_CACTVS_HBOND_ACCEPTOR>
7

> <PUBCHEM_CACTVS_HBOND_DONOR>
2

> <PUBCHEM_CACTVS_ROTATABLE_BOND>
6

> <PUBCHEM_CACTVS_SUBSKEYS>
AAADceB7sAAEAAAAAAAAAAAAAAAAAWAAAAA8WLEAAAAAAFgB/AAAHgIQCAAADR7hnyY/9p/MHgCoAzd3dAKCiC0xN6AJ2CF/fpiOfuLF+dvVNChs1hPY6CeQwPAOiAABAAAAEAAQAAIAAAAgAAAAAAAAAA==

> <PUBCHEM_IUPAC_OPENEYE_NAME>
(2R)-1-[4-[4-[(5-chloro-4-imidazo[1,2-a]pyridin-3-yl-pyrimidin-2-yl)amino]-3-methoxy-phenyl]-1-piperidyl]-2-hydroxy-propan-1-one

> <PUBCHEM_IUPAC_CAS_NAME>
(2R)-1-[4-[4-[[5-chloro-4-(3-imidazo[1,2-a]pyridinyl)-2-pyrimidinyl]amino]-3-methoxyphenyl]-1-piperidinyl]-2-hydroxy-1-propanone

> <PUBCHEM_IUPAC_NAME>
(2R)-1-[4-[4-[(5-chloro-4-imidazo[1,2-a]pyridin-3-ylpyrimidin-2-yl)amino]-3-methoxyphenyl]piperidin-1-yl]-2-hydroxypropan-1-one

> <PUBCHEM_IUPAC_SYSTEMATIC_NAME>
(2R)-1-[4-[4-[(5-chloranyl-4-imidazo[1,2-a]pyridin-3-yl-pyrimidin-2-yl)amino]-3-methoxy-phenyl]piperidin-1-yl]-2-oxidanyl-propan-1-one

> <PUBCHEM_IUPAC_TRADITIONAL_NAME>
(2R)-1-[4-[4-[(5-chloro-4-imidazo[1,2-a]pyridin-3-yl-pyrimidin-2-yl)amino]-3-methoxy-phenyl]piperidino]-2-hydroxy-propan-1-one

> <PUBCHEM_IUPAC_INCHI>
InChI=1S/C26H27ClN6O3/c1-16(34)25(35)32-11-8-17(9-12-32)18-6-7-20(22(13-18)36-2)30-26-29-14-19(27)24(31-26)21-15-28-23-5-3-4-10-33(21)23/h3-7,10,13-17,34H,8-9,11-12H2,1-2H3,(H,29,30,31)/t16-/m1/s1

> <PUBCHEM_IUPAC_INCHIKEY>
BWHSKWLYLXKFHO-MRXNPFEDSA-N

> <PUBCHEM_XLOGP3_AA>
4

> <PUBCHEM_EXACT_MASS>
506.183316

> <PUBCHEM_MOLECULAR_FORMULA>
C26H27ClN6O3

> <PUBCHEM_MOLECULAR_WEIGHT>
506.98398

> <PUBCHEM_OPENEYE_CAN_SMILES>
CC(C(=O)N1CCC(CC1)C2=CC(=C(C=C2)NC3=NC=C(C(=N3)C4=CN=C5N4C=CC=C5)Cl)OC)O

> <PUBCHEM_OPENEYE_ISO_SMILES>
C[C@H](C(=O)N1CCC(CC1)C2=CC(=C(C=C2)NC3=NC=C(C(=N3)C4=CN=C5N4C=CC=C5)Cl)OC)O

> <PUBCHEM_CACTVS_TPSA>
105

> <PUBCHEM_MONOISOTOPIC_WEIGHT>
506.183316

> <PUBCHEM_TOTAL_CHARGE>
0

> <PUBCHEM_HEAVY_ATOM_COUNT>
36

> <PUBCHEM_ATOM_DEF_STEREO_COUNT>
1

> <PUBCHEM_ATOM_UDEF_STEREO_COUNT>
0

> <PUBCHEM_BOND_DEF_STEREO_COUNT>
0

> <PUBCHEM_BOND_UDEF_STEREO_COUNT>
0

> <PUBCHEM_ISOTOPIC_ATOM_COUNT>
0

> <PUBCHEM_COMPONENT_COUNT>
1

> <PUBCHEM_CACTVS_TAUTO_COUNT>
3

> <PUBCHEM_COORDINATE_TYPE>
1
5
255

> <PUBCHEM_BONDANNOTATIONS>
10  29  8
10  31  8
16  18  8
16  19  8
18  21  8
19  22  8
21  23  8
22  23  8
27  30  8
28  31  8
29  34  8
20  3  6
30  32  8
33  35  8
34  36  8
35  36  8
7  25  8
7  27  8
8  28  8
8  29  8
8  33  8
9  25  8
9  32  8

$$$$
73554252
  -OEChem-11121519512D

 23 20  0     0  0  0  0  0  0999 V2000
    3.7320    0.9688    0.0000 Pt  0  0  0  0  0  0  0  0  0  0  0  0
    4.5981    0.4688    0.0000 O   0  5  0  0  0  0  0  0  0  0  0  0
    2.8660    0.4688    0.0000 O   0  5  0  0  0  0  0  0  0  0  0  0
    2.0000   -1.0312    0.0000 O   0  0  0  0  0  0  0  0  0  0  0  0
    5.4641   -1.0312    0.0000 O   0  0  0  0  0  0  0  0  0  0  0  0
    4.2320    1.8348    0.0000 N   0  5  0  0  0  0  0  0  0  0  0  0
    2.9660    1.6116    0.0000 N   0  5  0  0  0  0  0  0  0  0  0  0
    3.7320   -1.0312    0.0000 C   0  0  0  0  0  0  0  0  0  0  0  0
    4.4392   -1.7383    0.0000 C   0  0  0  0  0  0  0  0  0  0  0  0
    3.0249   -1.7383    0.0000 C   0  0  0  0  0  0  0  0  0  0  0  0
    3.7320   -2.4454    0.0000 C   0  0  0  0  0  0  0  0  0  0  0  0
    2.8660   -0.5312    0.0000 C   0  0  0  0  0  0  0  0  0  0  0  0
    4.5981   -0.5312    0.0000 C   0  0  0  0  0  0  0  0  0  0  0  0
    2.5865   -1.2999    0.0000 H   0  0  0  0  0  0  0  0  0  0  0  0
    2.5865   -2.1767    0.0000 H   0  0  0  0  0  0  0  0  0  0  0  0
    4.8776   -2.1767    0.0000 H   0  0  0  0  0  0  0  0  0  0  0  0
    4.8776   -1.2999    0.0000 H   0  0  0  0  0  0  0  0  0  0  0  0
    3.2936   -2.8838    0.0000 H   0  0  0  0  0  0  0  0  0  0  0  0
    4.1705   -2.8838    0.0000 H   0  0  0  0  0  0  0  0  0  0  0  0
    2.3834    1.3995    0.0000 H   0  0  0  0  0  0  0  0  0  0  0  0
    3.0737    2.2222    0.0000 H   0  0  0  0  0  0  0  0  0  0  0  0
    4.8520    1.8348    0.0000 H   0  0  0  0  0  0  0  0  0  0  0  0
    4.1244    2.4454    0.0000 H   0  0  0  0  0  0  0  0  0  0  0  0
  2 13  1  0  0  0  0
  3 12  1  0  0  0  0
  4 12  2  0  0  0  0
  5 13  2  0  0  0  0
  6 22  1  0  0  0  0
  6 23  1  0  0  0  0
  7 20  1  0  0  0  0
  7 21  1  0  0  0  0
  8  9  1  0  0  0  0
  8 10  1  0  0  0  0
  8 12  1  0  0  0  0
  8 13  1  0  0  0  0
  9 11  1  0  0  0  0
  9 16  1  0  0  0  0
  9 17  1  0  0  0  0
 10 11  1  0  0  0  0
 10 14  1  0  0  0  0
 10 15  1  0  0  0  0
 11 18  1  0  0  0  0
 11 19  1  0  0  0  0
M  CHG  5   1   4   2  -1   3  -1   6  -1   7  -1
M  END
> <PUBCHEM_COMPOUND_CID>
73554252

> <PUBCHEM_COMPOUND_CANONICALIZED>
1

> <PUBCHEM_CACTVS_COMPLEXITY>
153

> <PUBCHEM_CACTVS_HBOND_ACCEPTOR>
6

> <PUBCHEM_CACTVS_HBOND_DONOR>
2

> <PUBCHEM_CACTVS_ROTATABLE_BOND>
0

> <PUBCHEM_CACTVS_SUBSKEYS>
AAADccBjOAAAAAAAAAAABAAAAABgAAAAAAAAAAAAAAAAAAAAAAAAGgAQAAAADgCAgAAACAAAAAAIAACQCAAAAAAAAAAAAAEAAAAAABYIAAAAAAAFIAAAAACIAAANAAAAAAAAAAAAAAAAAAAAAAAAAAAAAA==

> <PUBCHEM_IUPAC_OPENEYE_NAME>
azanide;cyclobutane-1,1-dicarboxylate;platinum(4+)

> <PUBCHEM_IUPAC_CAS_NAME>
azanide;cyclobutane-1,1-dicarboxylate;platinum(4+)

> <PUBCHEM_IUPAC_NAME>
azanide;cyclobutane-1,1-dicarboxylate;platinum(4+)

> <PUBCHEM_IUPAC_SYSTEMATIC_NAME>
azanide;cyclobutane-1,1-dicarboxylate;platinum(4+)

> <PUBCHEM_IUPAC_TRADITIONAL_NAME>
azanide;cyclobutane-1,1-dicarboxylate;platinum(4+)

> <PUBCHEM_IUPAC_INCHI>
InChI=1S/C6H8O4.2H2N.Pt/c7-4(8)6(5(9)10)2-1-3-6;;;/h1-3H2,(H,7,8)(H,9,10);2*1H2;/q;2*-1;+4/p-2

> <PUBCHEM_IUPAC_INCHIKEY>
YAYRGNWWLMLWJE-UHFFFAOYSA-L

> <PUBCHEM_EXACT_MASS>
369.028848

> <PUBCHEM_MOLECULAR_FORMULA>
C6H10N2O4Pt

> <PUBCHEM_MOLECULAR_WEIGHT>
369.2386

> <PUBCHEM_OPENEYE_CAN_SMILES>
C1CC(C1)(C(=O)[O-])C(=O)[O-].[NH2-].[NH2-].[Pt+4]

> <PUBCHEM_OPENEYE_ISO_SMILES>
C1CC(C1)(C(=O)[O-])C(=O)[O-].[NH2-].[NH2-].[Pt+4]

> <PUBCHEM_CACTVS_TPSA>
82.3

> <PUBCHEM_MONOISOTOPIC_WEIGHT>
369.028848

> <PUBCHEM_TOTAL_CHARGE>
0

> <PUBCHEM_HEAVY_ATOM_COUNT>
13

> <PUBCHEM_ATOM_DEF_STEREO_COUNT>
0

> <PUBCHEM_ATOM_UDEF_STEREO_COUNT>
0

> <PUBCHEM_BOND_DEF_STEREO_COUNT>
0

> <PUBCHEM_BOND_UDEF_STEREO_COUNT>
0

> <PUBCHEM_ISOTOPIC_ATOM_COUNT>
0

> <PUBCHEM_COMPONENT_COUNT>
4

> <PUBCHEM_CACTVS_TAUTO_COUNT>
1

> <PUBCHEM_COORDINATE_TYPE>
1
5
255

$$$$
76321032
  -OEChem-11121519512D

 62 65  0     1  0  0  0  0  0999 V2000
    2.8660   -0.1830    0.0000 O   0  0  0  0  0  0  0  0  0  0  0  0
    7.1962    4.3170    0.0000 N   0  0  0  0  0  0  0  0  0  0  0  0
    8.0622    2.8170    0.0000 N   0  0  0  0  0  0  0  0  0  0  0  0
    9.0084    3.1217    0.0000 N   0  0  0  0  0  0  0  0  0  0  0  0
    7.1962    1.3170    0.0000 N   0  0  0  0  0  0  0  0  0  0  0  0
    5.4641    1.3170    0.0000 N   0  0  0  0  0  0  0  0  0  0  0  0
    5.4641   -2.6830    0.0000 N   0  0  3  0  0  0  0  0  0  0  0  0
    7.1962   -4.6830    0.0000 N   0  0  0  0  0  0  0  0  0  0  0  0
    3.7320   -1.6830    0.0000 N   0  0  0  0  0  0  0  0  0  0  0  0
    9.6297   -0.3888    0.0000 N   0  0  0  0  0  0  0  0  0  0  0  0
    6.3301    4.8170    0.0000 C   0  0  0  0  0  0  0  0  0  0  0  0
    5.8301    5.6830    0.0000 C   0  0  0  0  0  0  0  0  0  0  0  0
    5.3301    4.8170    0.0000 C   0  0  0  0  0  0  0  0  0  0  0  0
    7.1962    3.3170    0.0000 C   0  0  0  0  0  0  0  0  0  0  0  0
    6.3301    2.8170    0.0000 C   0  0  0  0  0  0  0  0  0  0  0  0
    8.0622    1.8170    0.0000 C   0  0  0  0  0  0  0  0  0  0  0  0
    6.3301    1.8170    0.0000 C   0  0  0  0  0  0  0  0  0  0  0  0
    9.0084    1.5123    0.0000 C   0  0  0  0  0  0  0  0  0  0  0  0
    9.5920    2.3170    0.0000 C   0  0  0  0  0  0  0  0  0  0  0  0
    5.4641    0.3170    0.0000 C   0  0  0  0  0  0  0  0  0  0  0  0
    5.4641   -1.6830    0.0000 C   0  0  0  0  0  0  0  0  0  0  0  0
    6.3301   -3.1830    0.0000 C   0  0  0  0  0  0  0  0  0  0  0  0
    4.5981   -1.1830    0.0000 C   0  0  0  0  0  0  0  0  0  0  0  0
    6.3301   -4.1830    0.0000 C   0  0  0  0  0  0  0  0  0  0  0  0
    4.5981   -0.1830    0.0000 C   0  0  0  0  0  0  0  0  0  0  0  0
    6.3301   -0.1830    0.0000 C   0  0  0  0  0  0  0  0  0  0  0  0
    6.3301   -1.1830    0.0000 C   0  0  0  0  0  0  0  0  0  0  0  0
    4.5981   -3.1830    0.0000 C   0  0  0  0  0  0  0  0  0  0  0  0
    9.3191    0.5617    0.0000 C   0  0  0  0  0  0  0  0  0  0  0  0
    7.1962   -5.6830    0.0000 C   0  0  0  0  0  0  0  0  0  0  0  0
    8.0622   -4.1830    0.0000 C   0  0  0  0  0  0  0  0  0  0  0  0
    2.8660   -1.1830    0.0000 C   0  0  0  0  0  0  0  0  0  0  0  0
    2.0000   -1.6830    0.0000 C   0  0  0  0  0  0  0  0  0  0  0  0
    6.7685    5.2554    0.0000 H   0  0  0  0  0  0  0  0  0  0  0  0
    6.3051    6.0815    0.0000 H   0  0  0  0  0  0  0  0  0  0  0  0
    5.3552    6.0815    0.0000 H   0  0  0  0  0  0  0  0  0  0  0  0
    4.7475    5.0290    0.0000 H   0  0  0  0  0  0  0  0  0  0  0  0
    5.2225    4.2064    0.0000 H   0  0  0  0  0  0  0  0  0  0  0  0
    7.7331    4.6270    0.0000 H   0  0  0  0  0  0  0  0  0  0  0  0
    5.7932    3.1270    0.0000 H   0  0  0  0  0  0  0  0  0  0  0  0
    4.9272    1.6270    0.0000 H   0  0  0  0  0  0  0  0  0  0  0  0
   10.2120    2.3170    0.0000 H   0  0  0  0  0  0  0  0  0  0  0  0
    6.9407   -3.2907    0.0000 H   0  0  0  0  0  0  0  0  0  0  0  0
    6.5422   -2.6004    0.0000 H   0  0  0  0  0  0  0  0  0  0  0  0
    5.7196   -4.0754    0.0000 H   0  0  0  0  0  0  0  0  0  0  0  0
    6.1181   -4.7656    0.0000 H   0  0  0  0  0  0  0  0  0  0  0  0
    4.0611    0.1270    0.0000 H   0  0  0  0  0  0  0  0  0  0  0  0
    6.8671    0.1270    0.0000 H   0  0  0  0  0  0  0  0  0  0  0  0
    6.8671   -1.4930    0.0000 H   0  0  0  0  0  0  0  0  0  0  0  0
    4.2881   -2.6461    0.0000 H   0  0  0  0  0  0  0  0  0  0  0  0
    4.0611   -3.4930    0.0000 H   0  0  0  0  0  0  0  0  0  0  0  0
    4.9081   -3.7200    0.0000 H   0  0  0  0  0  0  0  0  0  0  0  0
    3.7320   -2.3030    0.0000 H   0  0  0  0  0  0  0  0  0  0  0  0
    6.5762   -5.6830    0.0000 H   0  0  0  0  0  0  0  0  0  0  0  0
    7.1962   -6.3030    0.0000 H   0  0  0  0  0  0  0  0  0  0  0  0
    7.8162   -5.6830    0.0000 H   0  0  0  0  0  0  0  0  0  0  0  0
    8.3722   -4.7200    0.0000 H   0  0  0  0  0  0  0  0  0  0  0  0
    8.5991   -3.8730    0.0000 H   0  0  0  0  0  0  0  0  0  0  0  0
    7.7522   -3.6461    0.0000 H   0  0  0  0  0  0  0  0  0  0  0  0
    1.6900   -1.1461    0.0000 H   0  0  0  0  0  0  0  0  0  0  0  0
    1.4631   -1.9930    0.0000 H   0  0  0  0  0  0  0  0  0  0  0  0
    2.3100   -2.2200    0.0000 H   0  0  0  0  0  0  0  0  0  0  0  0
  1 32  2  0  0  0  0
  2 11  1  0  0  0  0
  2 14  1  0  0  0  0
  2 39  1  0  0  0  0
  3  4  1  0  0  0  0
  3 14  1  0  0  0  0
  3 16  1  0  0  0  0
  4 19  2  0  0  0  0
  5 16  1  0  0  0  0
  5 17  2  0  0  0  0
  6 17  1  0  0  0  0
  6 20  1  0  0  0  0
  6 41  1  0  0  0  0
  7 21  1  0  0  0  0
  7 22  1  0  0  0  0
  7 28  1  0  0  0  0
  8 24  1  0  0  0  0
  8 30  1  0  0  0  0
  8 31  1  0  0  0  0
  9 23  1  0  0  0  0
  9 32  1  0  0  0  0
  9 53  1  0  0  0  0
 10 29  3  0  0  0  0
 11 12  1  0  0  0  0
 11 13  1  0  0  0  0
 11 34  1  0  0  0  0
 12 13  1  0  0  0  0
 12 35  1  0  0  0  0
 12 36  1  0  0  0  0
 13 37  1  0  0  0  0
 13 38  1  0  0  0  0
 14 15  2  0  0  0  0
 15 17  1  0  0  0  0
 15 40  1  0  0  0  0
 16 18  2  0  0  0  0
 18 19  1  0  0  0  0
 18 29  1  0  0  0  0
 19 42  1  0  0  0  0
 20 25  2  0  0  0  0
 20 26  1  0  0  0  0
 21 23  2  0  0  0  0
 21 27  1  0  0  0  0
 22 24  1  0  0  0  0
 22 43  1  0  0  0  0
 22 44  1  0  0  0  0
 23 25  1  0  0  0  0
 24 45  1  0  0  0  0
 24 46  1  0  0  0  0
 25 47  1  0  0  0  0
 26 27  2  0  0  0  0
 26 48  1  0  0  0  0
 27 49  1  0  0  0  0
 28 50  1  0  0  0  0
 28 51  1  0  0  0  0
 28 52  1  0  0  0  0
 30 54  1  0  0  0  0
 30 55  1  0  0  0  0
 30 56  1  0  0  0  0
 31 57  1  0  0  0  0
 31 58  1  0  0  0  0
 31 59  1  0  0  0  0
 32 33  1  0  0  0  0
 33 60  1  0  0  0  0
 33 61  1  0  0  0  0
 33 62  1  0  0  0  0
M  END
> <PUBCHEM_COMPOUND_CID>
76321032

> <PUBCHEM_COMPOUND_CANONICALIZED>
1

> <PUBCHEM_CACTVS_COMPLEXITY>
720

> <PUBCHEM_CACTVS_HBOND_ACCEPTOR>
8

> <PUBCHEM_CACTVS_HBOND_DONOR>
3

> <PUBCHEM_CACTVS_ROTATABLE_BOND>
9

> <PUBCHEM_CACTVS_SUBSKEYS>
AAADceB74AAAAAAAAAAAAAAAGAAAAWAAAAA8QAAAAAAAAFgB8AAAHgAYAAAADCjBmwQ/8J/IEAC6Bjd3dACyhCshgqAdmKA4dJiI6OLA2dGUpAh4nALIyCcQAAAAAACAAAQAACAAAQAACAAAQAAAAAAAAA==

> <PUBCHEM_IUPAC_OPENEYE_NAME>
N-[5-[[3-cyano-7-(cyclopropylamino)pyrazolo[1,5-a]pyrimidin-5-yl]amino]-2-[2-(dimethylamino)ethyl-methyl-amino]phenyl]acetamide

> <PUBCHEM_IUPAC_CAS_NAME>
N-[5-[[3-cyano-7-(cyclopropylamino)-5-pyrazolo[1,5-a]pyrimidinyl]amino]-2-[2-(dimethylamino)ethyl-methylamino]phenyl]acetamide

> <PUBCHEM_IUPAC_NAME>
N-[5-[[3-cyano-7-(cyclopropylamino)pyrazolo[1,5-a]pyrimidin-5-yl]amino]-2-[2-(dimethylamino)ethyl-methylamino]phenyl]acetamide

> <PUBCHEM_IUPAC_SYSTEMATIC_NAME>
N-[5-[[3-cyano-7-(cyclopropylamino)pyrazolo[1,5-a]pyrimidin-5-yl]amino]-2-[2-(dimethylamino)ethyl-methyl-amino]phenyl]ethanamide

> <PUBCHEM_IUPAC_TRADITIONAL_NAME>
N-[5-[[3-cyano-7-(cyclopropylamino)pyrazolo[1,5-a]pyrimidin-5-yl]amino]-2-[2-(dimethylamino)ethyl-methyl-amino]phenyl]acetamide

> <PUBCHEM_IUPAC_INCHI>
InChI=1S/C23H29N9O/c1-15(33)26-19-11-18(7-8-20(19)31(4)10-9-30(2)3)27-21-12-22(28-17-5-6-17)32-23(29-21)16(13-24)14-25-32/h7-8,11-12,14,17,28H,5-6,9-10H2,1-4H3,(H,26,33)(H,27,29)

> <PUBCHEM_IUPAC_INCHIKEY>
SRABOMKMQRYXIK-UHFFFAOYSA-N

> <PUBCHEM_XLOGP3_AA>
2.1

> <PUBCHEM_EXACT_MASS>
447.249507

> <PUBCHEM_MOLECULAR_FORMULA>
C23H29N9O

> <PUBCHEM_MOLECULAR_WEIGHT>
447.53606

> <PUBCHEM_OPENEYE_CAN_SMILES>
CC(=O)NC1=C(C=CC(=C1)NC2=NC3=C(C=NN3C(=C2)NC4CC4)C#N)N(C)CCN(C)C

> <PUBCHEM_OPENEYE_ISO_SMILES>
CC(=O)NC1=C(C=CC(=C1)NC2=NC3=C(C=NN3C(=C2)NC4CC4)C#N)N(C)CCN(C)C

> <PUBCHEM_CACTVS_TPSA>
114

> <PUBCHEM_MONOISOTOPIC_WEIGHT>
447.249507

> <PUBCHEM_TOTAL_CHARGE>
0

> <PUBCHEM_HEAVY_ATOM_COUNT>
33

> <PUBCHEM_ATOM_DEF_STEREO_COUNT>
0

> <PUBCHEM_ATOM_UDEF_STEREO_COUNT>
0

> <PUBCHEM_BOND_DEF_STEREO_COUNT>
0

> <PUBCHEM_BOND_UDEF_STEREO_COUNT>
0

> <PUBCHEM_ISOTOPIC_ATOM_COUNT>
0

> <PUBCHEM_COMPONENT_COUNT>
1

> <PUBCHEM_CACTVS_TAUTO_COUNT>
33

> <PUBCHEM_COORDINATE_TYPE>
1
5
255

> <PUBCHEM_BONDANNOTATIONS>
14  15  8
15  17  8
16  18  8
18  19  8
20  25  8
20  26  8
21  23  8
21  27  8
23  25  8
26  27  8
3  14  8
3  16  8
3  4  8
4  19  8
5  16  8
5  17  8

$$$$
86661883
  -OEChem-11121519512D

111116  0     1  0  0  0  0  0999 V2000
   21.9186   -3.0000    0.0000 Cl  0  0  0  0  0  0  0  0  0  0  0  0
   10.6603    1.5000    0.0000 S   0  0  0  0  0  0  0  0  0  0  0  0
    8.9282    4.5000    0.0000 S   0  0  0  0  0  0  0  0  0  0  0  0
    4.5981    3.0000    0.0000 S   0  0  0  0  0  0  0  0  0  0  0  0
    8.9282    6.5000    0.0000 F   0  0  0  0  0  0  0  0  0  0  0  0
    9.9282    5.5000    0.0000 F   0  0  0  0  0  0  0  0  0  0  0  0
    7.9282    5.5000    0.0000 F   0  0  0  0  0  0  0  0  0  0  0  0
   18.4545   -3.0000    0.0000 O   0  0  0  0  0  0  0  0  0  0  0  0
   10.6603   -0.5000    0.0000 O   0  0  0  0  0  0  0  0  0  0  0  0
   10.1603    0.6340    0.0000 O   0  0  0  0  0  0  0  0  0  0  0  0
   11.1603    2.3660    0.0000 O   0  0  0  0  0  0  0  0  0  0  0  0
    9.9282    4.5000    0.0000 O   0  0  0  0  0  0  0  0  0  0  0  0
    7.9282    4.5000    0.0000 O   0  0  0  0  0  0  0  0  0  0  0  0
    3.7320   -1.5000    0.0000 O   0  0  0  0  0  0  0  0  0  0  0  0
   14.9904   -2.0000    0.0000 N   0  0  0  0  0  0  0  0  0  0  0  0
    7.1962    3.5000    0.0000 N   0  0  0  0  0  0  0  0  0  0  0  0
   11.5263    1.0000    0.0000 N   0  0  0  0  0  0  0  0  0  0  0  0
    5.4641    0.5000    0.0000 N   0  0  3  0  0  0  0  0  0  0  0  0
   16.7224   -3.0000    0.0000 C   0  0  0  0  0  0  0  0  0  0  0  0
   15.8564   -3.5000    0.0000 C   0  0  0  0  0  0  0  0  0  0  0  0
   16.7224   -2.0000    0.0000 C   0  0  0  0  0  0  0  0  0  0  0  0
   14.9904   -3.0000    0.0000 C   0  0  0  0  0  0  0  0  0  0  0  0
   15.8564   -1.5000    0.0000 C   0  0  0  0  0  0  0  0  0  0  0  0
   17.5885   -3.5000    0.0000 C   0  0  2  0  0  0  0  0  0  0  0  0
   17.5885   -4.5000    0.0000 C   0  0  0  0  0  0  0  0  0  0  0  0
   14.1244   -1.5000    0.0000 C   0  0  0  0  0  0  0  0  0  0  0  0
   18.4545   -5.0000    0.0000 C   0  0  0  0  0  0  0  0  0  0  0  0
   16.7224   -5.0000    0.0000 C   0  0  0  0  0  0  0  0  0  0  0  0
   14.1244   -0.5000    0.0000 C   0  0  0  0  0  0  0  0  0  0  0  0
   13.2583   -2.0000    0.0000 C   0  0  0  0  0  0  0  0  0  0  0  0
   18.4545   -6.0000    0.0000 C   0  0  0  0  0  0  0  0  0  0  0  0
   19.3205   -4.5000    0.0000 C   0  0  0  0  0  0  0  0  0  0  0  0
   16.7224   -6.0000    0.0000 C   0  0  0  0  0  0  0  0  0  0  0  0
   13.2583    0.0000    0.0000 C   0  0  0  0  0  0  0  0  0  0  0  0
   12.3923   -1.5000    0.0000 C   0  0  0  0  0  0  0  0  0  0  0  0
   17.5885   -6.5000    0.0000 C   0  0  0  0  0  0  0  0  0  0  0  0
   12.3923   -0.5000    0.0000 C   0  0  0  0  0  0  0  0  0  0  0  0
   20.1865   -5.0000    0.0000 C   0  0  0  0  0  0  0  0  0  0  0  0
   19.3205   -3.5000    0.0000 C   0  0  0  0  0  0  0  0  0  0  0  0
   11.5263    0.0000    0.0000 C   0  0  0  0  0  0  0  0  0  0  0  0
    6.3301    3.0000    0.0000 C   0  0  2  0  0  0  0  0  0  0  0  0
    6.3301    2.0000    0.0000 C   0  0  0  0  0  0  0  0  0  0  0  0
   21.0526   -4.5000    0.0000 C   0  0  0  0  0  0  0  0  0  0  0  0
   20.1865   -3.0000    0.0000 C   0  0  0  0  0  0  0  0  0  0  0  0
    5.4641    1.5000    0.0000 C   0  0  0  0  0  0  0  0  0  0  0  0
    5.4641    3.5000    0.0000 C   0  0  0  0  0  0  0  0  0  0  0  0
    8.0622    3.0000    0.0000 C   0  0  0  0  0  0  0  0  0  0  0  0
   21.0526   -3.5000    0.0000 C   0  0  0  0  0  0  0  0  0  0  0  0
    8.9282    3.5000    0.0000 C   0  0  0  0  0  0  0  0  0  0  0  0
    9.7942    2.0000    0.0000 C   0  0  0  0  0  0  0  0  0  0  0  0
    9.7942    3.0000    0.0000 C   0  0  0  0  0  0  0  0  0  0  0  0
    8.0622    2.0000    0.0000 C   0  0  0  0  0  0  0  0  0  0  0  0
    4.5981    0.0000    0.0000 C   0  0  0  0  0  0  0  0  0  0  0  0
    8.9282    1.5000    0.0000 C   0  0  0  0  0  0  0  0  0  0  0  0
    6.3301    0.0000    0.0000 C   0  0  0  0  0  0  0  0  0  0  0  0
    4.5981   -1.0000    0.0000 C   0  0  0  0  0  0  0  0  0  0  0  0
    8.9282    5.5000    0.0000 C   0  0  0  0  0  0  0  0  0  0  0  0
    3.7320    3.5000    0.0000 C   0  0  0  0  0  0  0  0  0  0  0  0
    2.8660    3.0000    0.0000 C   0  0  0  0  0  0  0  0  0  0  0  0
    3.7320    4.5000    0.0000 C   0  0  0  0  0  0  0  0  0  0  0  0
    2.0000    3.5000    0.0000 C   0  0  0  0  0  0  0  0  0  0  0  0
    2.8660    5.0000    0.0000 C   0  0  0  0  0  0  0  0  0  0  0  0
    2.0000    4.5000    0.0000 C   0  0  0  0  0  0  0  0  0  0  0  0
   16.7224   -3.6200    0.0000 H   0  0  0  0  0  0  0  0  0  0  0  0
   15.4579   -3.9750    0.0000 H   0  0  0  0  0  0  0  0  0  0  0  0
   16.2549   -3.9750    0.0000 H   0  0  0  0  0  0  0  0  0  0  0  0
   17.3330   -2.1077    0.0000 H   0  0  0  0  0  0  0  0  0  0  0  0
   16.9345   -1.4174    0.0000 H   0  0  0  0  0  0  0  0  0  0  0  0
   14.3798   -2.8923    0.0000 H   0  0  0  0  0  0  0  0  0  0  0  0
   14.7783   -3.5826    0.0000 H   0  0  0  0  0  0  0  0  0  0  0  0
   16.2549   -1.0250    0.0000 H   0  0  0  0  0  0  0  0  0  0  0  0
   15.4579   -1.0250    0.0000 H   0  0  0  0  0  0  0  0  0  0  0  0
   17.5885   -2.8800    0.0000 H   0  0  0  0  0  0  0  0  0  0  0  0
   18.4545   -2.3800    0.0000 H   0  0  0  0  0  0  0  0  0  0  0  0
   16.1855   -4.6900    0.0000 H   0  0  0  0  0  0  0  0  0  0  0  0
   14.6613   -0.1900    0.0000 H   0  0  0  0  0  0  0  0  0  0  0  0
   13.2583   -2.6200    0.0000 H   0  0  0  0  0  0  0  0  0  0  0  0
   18.9914   -6.3100    0.0000 H   0  0  0  0  0  0  0  0  0  0  0  0
   16.1855   -6.3100    0.0000 H   0  0  0  0  0  0  0  0  0  0  0  0
   13.2583    0.6200    0.0000 H   0  0  0  0  0  0  0  0  0  0  0  0
   11.8554   -1.8100    0.0000 H   0  0  0  0  0  0  0  0  0  0  0  0
   17.5885   -7.1200    0.0000 H   0  0  0  0  0  0  0  0  0  0  0  0
   20.1865   -5.6200    0.0000 H   0  0  0  0  0  0  0  0  0  0  0  0
   18.7836   -3.1900    0.0000 H   0  0  0  0  0  0  0  0  0  0  0  0
    6.8671    2.6900    0.0000 H   0  0  0  0  0  0  0  0  0  0  0  0
    6.5422    1.4174    0.0000 H   0  0  0  0  0  0  0  0  0  0  0  0
    6.9407    2.1077    0.0000 H   0  0  0  0  0  0  0  0  0  0  0  0
    5.2520    2.0826    0.0000 H   0  0  0  0  0  0  0  0  0  0  0  0
    4.8535    1.3923    0.0000 H   0  0  0  0  0  0  0  0  0  0  0  0
   21.5895   -4.8100    0.0000 H   0  0  0  0  0  0  0  0  0  0  0  0
   20.1865   -2.3800    0.0000 H   0  0  0  0  0  0  0  0  0  0  0  0
    7.1962    4.1200    0.0000 H   0  0  0  0  0  0  0  0  0  0  0  0
   12.0632    1.3100    0.0000 H   0  0  0  0  0  0  0  0  0  0  0  0
    5.8626    3.9750    0.0000 H   0  0  0  0  0  0  0  0  0  0  0  0
    5.0656    3.9750    0.0000 H   0  0  0  0  0  0  0  0  0  0  0  0
   10.3312    3.3100    0.0000 H   0  0  0  0  0  0  0  0  0  0  0  0
    7.5252    1.6900    0.0000 H   0  0  0  0  0  0  0  0  0  0  0  0
    4.3860    0.5826    0.0000 H   0  0  0  0  0  0  0  0  0  0  0  0
    3.9875   -0.1077    0.0000 H   0  0  0  0  0  0  0  0  0  0  0  0
    8.9282    0.8800    0.0000 H   0  0  0  0  0  0  0  0  0  0  0  0
    6.0201   -0.5369    0.0000 H   0  0  0  0  0  0  0  0  0  0  0  0
    6.8671   -0.3100    0.0000 H   0  0  0  0  0  0  0  0  0  0  0  0
    6.6401    0.5369    0.0000 H   0  0  0  0  0  0  0  0  0  0  0  0
    4.8101   -1.5826    0.0000 H   0  0  0  0  0  0  0  0  0  0  0  0
    5.2087   -0.8923    0.0000 H   0  0  0  0  0  0  0  0  0  0  0  0
    2.8660    2.3800    0.0000 H   0  0  0  0  0  0  0  0  0  0  0  0
    4.2690    4.8100    0.0000 H   0  0  0  0  0  0  0  0  0  0  0  0
    3.7320   -2.1200    0.0000 H   0  0  0  0  0  0  0  0  0  0  0  0
    1.4631    3.1900    0.0000 H   0  0  0  0  0  0  0  0  0  0  0  0
    2.8660    5.6200    0.0000 H   0  0  0  0  0  0  0  0  0  0  0  0
    1.4631    4.8100    0.0000 H   0  0  0  0  0  0  0  0  0  0  0  0
  1 48  1  0  0  0  0
  2 10  2  0  0  0  0
  2 11  2  0  0  0  0
  2 17  1  0  0  0  0
  2 50  1  0  0  0  0
  3 12  2  0  0  0  0
  3 13  2  0  0  0  0
  3 49  1  0  0  0  0
  3 57  1  0  0  0  0
  4 46  1  0  0  0  0
  4 58  1  0  0  0  0
  5 57  1  0  0  0  0
  6 57  1  0  0  0  0
  7 57  1  0  0  0  0
 24  8  1  1  0  0  0
  8 74  1  0  0  0  0
  9 40  2  0  0  0  0
 14 56  1  0  0  0  0
 14108  1  0  0  0  0
 15 22  1  0  0  0  0
 15 23  1  0  0  0  0
 15 26  1  0  0  0  0
 41 16  1  6  0  0  0
 16 47  1  0  0  0  0
 16 92  1  0  0  0  0
 17 40  1  0  0  0  0
 17 93  1  0  0  0  0
 18 45  1  0  0  0  0
 18 53  1  0  0  0  0
 18 55  1  0  0  0  0
 19 20  1  0  0  0  0
 19 21  1  0  0  0  0
 19 24  1  0  0  0  0
 19 64  1  0  0  0  0
 20 22  1  0  0  0  0
 20 65  1  0  0  0  0
 20 66  1  0  0  0  0
 21 23  1  0  0  0  0
 21 67  1  0  0  0  0
 21 68  1  0  0  0  0
 22 69  1  0  0  0  0
 22 70  1  0  0  0  0
 23 71  1  0  0  0  0
 23 72  1  0  0  0  0
 24 25  1  0  0  0  0
 24 73  1  0  0  0  0
 25 27  1  0  0  0  0
 25 28  2  0  0  0  0
 26 29  2  0  0  0  0
 26 30  1  0  0  0  0
 27 31  2  0  0  0  0
 27 32  1  0  0  0  0
 28 33  1  0  0  0  0
 28 75  1  0  0  0  0
 29 34  1  0  0  0  0
 29 76  1  0  0  0  0
 30 35  2  0  0  0  0
 30 77  1  0  0  0  0
 31 36  1  0  0  0  0
 31 78  1  0  0  0  0
 32 38  2  0  0  0  0
 32 39  1  0  0  0  0
 33 36  2  0  0  0  0
 33 79  1  0  0  0  0
 34 37  2  0  0  0  0
 34 80  1  0  0  0  0
 35 37  1  0  0  0  0
 35 81  1  0  0  0  0
 36 82  1  0  0  0  0
 37 40  1  0  0  0  0
 38 43  1  0  0  0  0
 38 83  1  0  0  0  0
 39 44  2  0  0  0  0
 39 84  1  0  0  0  0
 41 42  1  0  0  0  0
 41 46  1  0  0  0  0
 41 85  1  0  0  0  0
 42 45  1  0  0  0  0
 42 86  1  0  0  0  0
 42 87  1  0  0  0  0
 43 48  2  0  0  0  0
 43 90  1  0  0  0  0
 44 48  1  0  0  0  0
 44 91  1  0  0  0  0
 45 88  1  0  0  0  0
 45 89  1  0  0  0  0
 46 94  1  0  0  0  0
 46 95  1  0  0  0  0
 47 49  2  0  0  0  0
 47 52  1  0  0  0  0
 49 51  1  0  0  0  0
 50 51  2  0  0  0  0
 50 54  1  0  0  0  0
 51 96  1  0  0  0  0
 52 54  2  0  0  0  0
 52 97  1  0  0  0  0
 53 56  1  0  0  0  0
 53 98  1  0  0  0  0
 53 99  1  0  0  0  0
 54100  1  0  0  0  0
 55101  1  0  0  0  0
 55102  1  0  0  0  0
 55103  1  0  0  0  0
 56104  1  0  0  0  0
 56105  1  0  0  0  0
 58 59  2  0  0  0  0
 58 60  1  0  0  0  0
 59 61  1  0  0  0  0
 59106  1  0  0  0  0
 60 62  2  0  0  0  0
 60107  1  0  0  0  0
 61 63  2  0  0  0  0
 61109  1  0  0  0  0
 62 63  1  0  0  0  0
 62110  1  0  0  0  0
 63111  1  0  0  0  0
M  END
> <PUBCHEM_COMPOUND_CID>
86661883

> <PUBCHEM_COMPOUND_CANONICALIZED>
1

> <PUBCHEM_CACTVS_COMPLEXITY>
1630

> <PUBCHEM_CACTVS_HBOND_ACCEPTOR>
14

> <PUBCHEM_CACTVS_HBOND_DONOR>
4

> <PUBCHEM_CACTVS_ROTATABLE_BOND>
18

> <PUBCHEM_CACTVS_SUBSKEYS>
AAADcfB/uYBkAAAAAAAAAAAAAAAAAAAAAAA8YMGDAAAAAAABVAAAHwYQSAAADT7l2DaywYPAAgqIAiVSUHDCABAlDxAIiJ0IbsgKNjLh15GEcQhk0AH42Ye4yeCejAQAAEAQAQAYCAAAgCACAAAAAAAAAA==

> <PUBCHEM_IUPAC_OPENEYE_NAME>
4-[4-[(R)-[2-(4-chlorophenyl)phenyl]-hydroxy-methyl]-1-piperidyl]-N-[4-[[(1R)-3-[2-hydroxyethyl(methyl)amino]-1-(phenylsulfanylmethyl)propyl]amino]-3-(trifluoromethylsulfonyl)phenyl]sulfonyl-benzamide

> <PUBCHEM_IUPAC_CAS_NAME>
4-[4-[(R)-[2-(4-chlorophenyl)phenyl]-hydroxymethyl]-1-piperidinyl]-N-[4-[[(2R)-4-[2-hydroxyethyl(methyl)amino]-1-(phenylthio)butan-2-yl]amino]-3-(trifluoromethylsulfonyl)phenyl]sulfonylbenzamide

> <PUBCHEM_IUPAC_NAME>
4-[4-[(R)-[2-(4-chlorophenyl)phenyl]-hydroxymethyl]piperidin-1-yl]-N-[4-[[(2R)-4-[2-hydroxyethyl(methyl)amino]-1-phenylsulfanylbutan-2-yl]amino]-3-(trifluoromethylsulfonyl)phenyl]sulfonylbenzamide

> <PUBCHEM_IUPAC_SYSTEMATIC_NAME>
4-[4-[(R)-[2-(4-chlorophenyl)phenyl]-oxidanyl-methyl]piperidin-1-yl]-N-[4-[[(2R)-4-[2-hydroxyethyl(methyl)amino]-1-phenylsulfanyl-butan-2-yl]amino]-3-(trifluoromethylsulfonyl)phenyl]sulfonyl-benzamide

> <PUBCHEM_IUPAC_TRADITIONAL_NAME>
4-[4-[(R)-[2-(4-chlorophenyl)phenyl]-hydroxy-methyl]piperidino]-N-[4-[[(1R)-3-[2-hydroxyethyl(methyl)amino]-1-[(phenylthio)methyl]propyl]amino]-3-triflyl-phenyl]sulfonyl-benzamide

> <PUBCHEM_IUPAC_INCHI>
InChI=1S/C45H48ClF3N4O7S3/c1-52(27-28-54)24-23-35(30-61-37-7-3-2-4-8-37)50-41-20-19-38(29-42(41)62(57,58)45(47,48)49)63(59,60)51-44(56)33-13-17-36(18-14-33)53-25-21-32(22-26-53)43(55)40-10-6-5-9-39(40)31-11-15-34(46)16-12-31/h2-20,29,32,35,43,50,54-55H,21-28,30H2,1H3,(H,51,56)/t35-,43-/m1/s1

> <PUBCHEM_IUPAC_INCHIKEY>
UNEJSHNDABUZNY-UJNHCCGESA-N

> <PUBCHEM_XLOGP3_AA>
9.3

> <PUBCHEM_EXACT_MASS>
944.232575

> <PUBCHEM_MOLECULAR_FORMULA>
C45H48ClF3N4O7S3

> <PUBCHEM_MOLECULAR_WEIGHT>
945.52843

> <PUBCHEM_OPENEYE_CAN_SMILES>
CN(CCC(CSC1=CC=CC=C1)NC2=C(C=C(C=C2)S(=O)(=O)NC(=O)C3=CC=C(C=C3)N4CCC(CC4)C(C5=CC=CC=C5C6=CC=C(C=C6)Cl)O)S(=O)(=O)C(F)(F)F)CCO

> <PUBCHEM_OPENEYE_ISO_SMILES>
CN(CC[C@H](CSC1=CC=CC=C1)NC2=C(C=C(C=C2)S(=O)(=O)NC(=O)C3=CC=C(C=C3)N4CCC(CC4)[C@H](C5=CC=CC=C5C6=CC=C(C=C6)Cl)O)S(=O)(=O)C(F)(F)F)CCO

> <PUBCHEM_CACTVS_TPSA>
198

> <PUBCHEM_MONOISOTOPIC_WEIGHT>
944.232575

> <PUBCHEM_TOTAL_CHARGE>
0

> <PUBCHEM_HEAVY_ATOM_COUNT>
63

> <PUBCHEM_ATOM_DEF_STEREO_COUNT>
2

> <PUBCHEM_ATOM_UDEF_STEREO_COUNT>
0

> <PUBCHEM_BOND_DEF_STEREO_COUNT>
0

> <PUBCHEM_BOND_UDEF_STEREO_COUNT>
0

> <PUBCHEM_ISOTOPIC_ATOM_COUNT>
0

> <PUBCHEM_COMPONENT_COUNT>
1

> <PUBCHEM_CACTVS_TAUTO_COUNT>
2

> <PUBCHEM_COORDINATE_TYPE>
1
5
255

> <PUBCHEM_BONDANNOTATIONS>
41  16  6
25  27  8
25  28  8
26  29  8
26  30  8
27  31  8
28  33  8
29  34  8
30  35  8
31  36  8
32  38  8
32  39  8
33  36  8
34  37  8
35  37  8
38  43  8
39  44  8
43  48  8
44  48  8
47  49  8
47  52  8
49  51  8
50  51  8
50  54  8
52  54  8
58  59  8
58  60  8
59  61  8
60  62  8
61  63  8
62  63  8
24  8  5

$$$$
