
 OpenBabel11121517312D

160163  0  0  1  0  0  0  0  0999 V2000
    5.1177    2.1427    0.0000 O   0  0  0  0  0  0  0  0  0  0  0  0
    6.8500    3.1424    0.0000 O   0  0  0  0  0  0  0  0  0  0  0  0
    9.0811   -0.7237    0.0000 O   0  0  0  0  0  0  0  0  0  0  0  0
   13.5434   -4.2627    0.0000 O   0  0  0  0  0  0  0  0  0  0  0  0
   11.6916   -3.5947    0.0000 O   0  0  0  0  0  0  0  0  0  0  0  0
    5.1179    3.1427    0.0000 O   0  0  0  0  0  0  0  0  0  0  0  0
   10.2055   -2.2547    0.0000 O   0  0  0  0  0  0  0  0  0  0  0  0
    6.2526   -1.9739    0.0000 O   0  0  0  0  0  0  0  0  0  0  0  0
   13.0194   -1.8230    0.0000 O   0  0  0  0  0  0  0  0  0  0  0  0
   10.8113   -2.2627    0.0000 O   0  0  0  0  0  0  0  0  0  0  0  0
    5.1186    6.1427    0.0000 O   0  0  0  0  0  0  0  0  0  0  0  0
    4.4844    5.5089    0.0000 O   0  0  0  0  0  0  0  0  0  0  0  0
   11.6377   -4.2779    0.0000 O   0  0  0  0  0  0  0  0  0  0  0  0
    2.3100   -2.0556    0.0000 O   0  0  0  0  0  0  0  0  0  0  0  0
    4.9410   -2.3800    0.0000 O   0  0  0  0  0  0  0  0  0  0  0  0
    3.1511   -4.2627    0.0000 O   0  0  0  0  0  0  0  0  0  0  0  0
   11.8113   -1.2627    0.0000 N   0  0  0  0  0  0  0  0  0  0  0  0
    6.8492    0.1425    0.0000 C   0  0  1  0  0  0  0  0  0  0  0  0
    5.9834    0.6425    0.0000 C   0  0  0  0  0  0  0  0  0  0  0  0
    7.7154    0.6423    0.0000 C   0  0  0  0  0  0  0  0  0  0  0  0
    6.8491   -0.8575    0.0000 C   0  0  0  0  0  0  0  0  0  0  0  0
    5.9836    1.6425    0.0000 C   0  0  2  0  0  0  0  0  0  0  0  0
    6.8498    2.1424    0.0000 C   0  0  1  0  0  0  0  0  0  0  0  0
    7.7156    1.6422    0.0000 C   0  0  0  0  0  0  0  0  0  0  0  0
    7.3491   -1.7238    0.0000 C   0  0  2  0  0  0  0  0  0  0  0  0
    8.2151   -1.2237    0.0000 C   0  0  2  0  0  0  0  0  0  0  0  0
    7.3491   -2.7237    0.0000 C   0  0  0  0  0  0  0  0  0  0  0  0
    7.3491   -0.7237    0.0000 C   0  0  0  0  0  0  0  0  0  0  0  0
   10.9453   -0.7627    0.0000 C   0  0  2  0  0  0  0  0  0  0  0  0
    5.9840    3.6425    0.0000 C   0  0  0  0  0  0  0  0  0  0  0  0
   13.5512   -3.2447    0.0000 C   0  0  1  0  0  0  0  0  0  0  0  0
   12.6774   -3.7627    0.0000 C   0  0  2  0  0  0  0  0  0  0  0  0
    5.9842    4.6425    0.0000 C   0  0  0  0  0  0  0  0  0  0  0  0
   10.0793   -1.2627    0.0000 C   0  0  0  0  0  0  0  0  0  0  0  0
    4.2516    1.6429    0.0000 C   0  0  0  0  0  0  0  0  0  0  0  0
    6.3831   -0.9825    0.0000 C   0  0  0  0  0  0  0  0  0  0  0  0
   10.9453    0.2373    0.0000 C   0  0  0  0  0  0  0  0  0  0  0  0
   14.4329   -3.7492    0.0000 C   0  0  0  0  0  0  0  0  0  0  0  0
   13.5434   -5.2627    0.0000 C   0  0  1  0  0  0  0  0  0  0  0  0
   14.4289   -4.7650    0.0000 C   0  0  0  0  0  0  0  0  0  0  0  0
   11.8113    0.7373    0.0000 C   0  0  0  0  0  0  0  0  0  0  0  0
   12.6774   -0.7627    0.0000 C   0  0  0  0  0  0  0  0  0  0  0  0
   12.6774    0.2373    0.0000 C   0  0  0  0  0  0  0  0  0  0  0  0
    5.5171   -0.4825    0.0000 C   0  0  2  0  0  0  0  0  0  0  0  0
   12.6774   -2.7627    0.0000 C   0  0  0  0  0  0  0  0  0  0  0  0
   12.6774   -5.7627    0.0000 C   0  0  0  0  0  0  0  0  0  0  0  0
   11.8113   -2.2627    0.0000 C   0  0  0  0  0  0  0  0  0  0  0  0
   14.1880   -2.4737    0.0000 C   0  0  0  0  0  0  0  0  0  0  0  0
    5.9845    5.6425    0.0000 C   0  0  0  0  0  0  0  0  0  0  0  0
    4.9842    4.6428    0.0000 C   0  0  0  0  0  0  0  0  0  0  0  0
    6.9842    4.6423    0.0000 C   0  0  0  0  0  0  0  0  0  0  0  0
   11.8113   -5.2627    0.0000 C   0  0  1  0  0  0  0  0  0  0  0  0
    5.2583    0.4834    0.0000 C   0  0  0  0  0  0  0  0  0  0  0  0
    5.0171   -1.3485    0.0000 C   0  0  0  0  0  0  0  0  0  0  0  0
   10.9453   -5.7627    0.0000 C   0  0  0  0  0  0  0  0  0  0  0  0
    4.0171   -1.3485    0.0000 C   0  0  0  0  0  0  0  0  0  0  0  0
    3.3100   -2.0556    0.0000 C   0  0  2  0  0  0  0  0  0  0  0  0
   10.9453   -6.7627    0.0000 C   0  0  0  0  0  0  0  0  0  0  0  0
   10.0793   -5.2627    0.0000 C   0  0  0  0  0  0  0  0  0  0  0  0
    3.6344   -0.4246    0.0000 C   0  0  0  0  0  0  0  0  0  0  0  0
    4.0171   -2.7627    0.0000 C   0  0  2  0  0  0  0  0  0  0  0  0
   10.6980   -3.9359    0.0000 C   0  0  0  0  0  0  0  0  0  0  0  0
    4.0171   -3.7627    0.0000 C   0  0  0  0  0  0  0  0  0  0  0  0
    4.8831   -4.2627    0.0000 C   0  0  1  0  0  0  0  0  0  0  0  0
    9.2133   -5.7627    0.0000 C   0  0  0  0  0  0  0  0  0  0  0  0
    5.7492   -3.7627    0.0000 C   0  0  0  0  0  0  0  0  0  0  0  0
    6.6152   -4.2627    0.0000 C   0  0  1  0  0  0  0  0  0  0  0  0
    4.8831   -5.2627    0.0000 C   0  0  0  0  0  0  0  0  0  0  0  0
    8.3472   -5.2627    0.0000 C   0  0  0  0  0  0  0  0  0  0  0  0
    6.6152   -5.2627    0.0000 C   0  0  0  0  0  0  0  0  0  0  0  0
    5.7343   -2.9888    0.0000 C   0  0  0  0  0  0  0  0  0  0  0  0
    7.4812   -5.7627    0.0000 C   0  0  0  0  0  0  0  0  0  0  0  0
    7.4812   -3.7627    0.0000 C   0  0  0  0  0  0  0  0  0  0  0  0
    6.3122   -0.1674    0.0000 H   0  0  0  0  0  0  0  0  0  0  0  0
    5.3728    0.7503    0.0000 H   0  0  0  0  0  0  0  0  0  0  0  0
    5.7712    0.0600    0.0000 H   0  0  0  0  0  0  0  0  0  0  0  0
    7.9273    0.0596    0.0000 H   0  0  0  0  0  0  0  0  0  0  0  0
    8.3260    0.7498    0.0000 H   0  0  0  0  0  0  0  0  0  0  0  0
    6.2665   -0.6454    0.0000 H   0  0  0  0  0  0  0  0  0  0  0  0
    7.4480   -0.6971    0.0000 H   0  0  0  0  0  0  0  0  0  0  0  0
    5.4466    1.3326    0.0000 H   0  0  0  0  0  0  0  0  0  0  0  0
    7.3868    2.4522    0.0000 H   0  0  0  0  0  0  0  0  0  0  0  0
    8.3261    1.5344    0.0000 H   0  0  0  0  0  0  0  0  0  0  0  0
    7.9278    2.2248    0.0000 H   0  0  0  0  0  0  0  0  0  0  0  0
    6.7502   -1.8842    0.0000 H   0  0  0  0  0  0  0  0  0  0  0  0
    8.6401   -1.9598    0.0000 H   0  0  0  0  0  0  0  0  0  0  0  0
    6.7291   -2.7237    0.0000 H   0  0  0  0  0  0  0  0  0  0  0  0
    7.3492   -3.3437    0.0000 H   0  0  0  0  0  0  0  0  0  0  0  0
    7.9691   -2.7237    0.0000 H   0  0  0  0  0  0  0  0  0  0  0  0
    7.7875   -0.2853    0.0000 H   0  0  0  0  0  0  0  0  0  0  0  0
    7.0391   -0.1867    0.0000 H   0  0  0  0  0  0  0  0  0  0  0  0
   10.2092   -0.3377    0.0000 H   0  0  0  0  0  0  0  0  0  0  0  0
   13.1481   -2.7736    0.0000 H   0  0  0  0  0  0  0  0  0  0  0  0
    3.9417    2.1799    0.0000 H   0  0  0  0  0  0  0  0  0  0  0  0
    3.7146    1.3330    0.0000 H   0  0  0  0  0  0  0  0  0  0  0  0
    4.5614    1.1059    0.0000 H   0  0  0  0  0  0  0  0  0  0  0  0
   10.7333    0.8199    0.0000 H   0  0  0  0  0  0  0  0  0  0  0  0
   10.3347    0.1296    0.0000 H   0  0  0  0  0  0  0  0  0  0  0  0
   15.0433   -3.8576    0.0000 H   0  0  0  0  0  0  0  0  0  0  0  0
   14.6442   -3.1663    0.0000 H   0  0  0  0  0  0  0  0  0  0  0  0
   13.9641   -6.0013    0.0000 H   0  0  0  0  0  0  0  0  0  0  0  0
   14.6357   -5.3495    0.0000 H   0  0  0  0  0  0  0  0  0  0  0  0
   15.0402   -4.6613    0.0000 H   0  0  0  0  0  0  0  0  0  0  0  0
   12.8894   -1.3453    0.0000 H   0  0  0  0  0  0  0  0  0  0  0  0
   13.2879   -0.6551    0.0000 H   0  0  0  0  0  0  0  0  0  0  0  0
   12.2099    1.2122    0.0000 H   0  0  0  0  0  0  0  0  0  0  0  0
   11.4128    1.2122    0.0000 H   0  0  0  0  0  0  0  0  0  0  0  0
   13.2879    0.1296    0.0000 H   0  0  0  0  0  0  0  0  0  0  0  0
   12.8894    0.8199    0.0000 H   0  0  0  0  0  0  0  0  0  0  0  0
    6.0090   -0.1050    0.0000 H   0  0  0  0  0  0  0  0  0  0  0  0
   12.2788   -6.2377    0.0000 H   0  0  0  0  0  0  0  0  0  0  0  0
   13.0759   -6.2377    0.0000 H   0  0  0  0  0  0  0  0  0  0  0  0
   14.6660   -2.8685    0.0000 H   0  0  0  0  0  0  0  0  0  0  0  0
   14.5829   -1.9957    0.0000 H   0  0  0  0  0  0  0  0  0  0  0  0
   13.7100   -2.0788    0.0000 H   0  0  0  0  0  0  0  0  0  0  0  0
    6.5950    5.5347    0.0000 H   0  0  0  0  0  0  0  0  0  0  0  0
    6.1966    6.2251    0.0000 H   0  0  0  0  0  0  0  0  0  0  0  0
    4.4016    4.4308    0.0000 H   0  0  0  0  0  0  0  0  0  0  0  0
    5.0918    4.0321    0.0000 H   0  0  0  0  0  0  0  0  0  0  0  0
    6.9841    4.0223    0.0000 H   0  0  0  0  0  0  0  0  0  0  0  0
    7.6042    4.6422    0.0000 H   0  0  0  0  0  0  0  0  0  0  0  0
    6.9844    5.2623    0.0000 H   0  0  0  0  0  0  0  0  0  0  0  0
   12.3192   -4.9071    0.0000 H   0  0  0  0  0  0  0  0  0  0  0  0
   11.2144   -3.1990    0.0000 H   0  0  0  0  0  0  0  0  0  0  0  0
    5.8572    0.6439    0.0000 H   0  0  0  0  0  0  0  0  0  0  0  0
    5.0978    1.0823    0.0000 H   0  0  0  0  0  0  0  0  0  0  0  0
    4.6594    0.3230    0.0000 H   0  0  0  0  0  0  0  0  0  0  0  0
    5.3271   -1.8854    0.0000 H   0  0  0  0  0  0  0  0  0  0  0  0
    5.1187    6.7627    0.0000 H   0  0  0  0  0  0  0  0  0  0  0  0
    3.8644    5.5090    0.0000 H   0  0  0  0  0  0  0  0  0  0  0  0
    3.0727   -1.4828    0.0000 H   0  0  0  0  0  0  0  0  0  0  0  0
   10.3253   -6.7627    0.0000 H   0  0  0  0  0  0  0  0  0  0  0  0
   10.9453   -7.3827    0.0000 H   0  0  0  0  0  0  0  0  0  0  0  0
   11.5653   -6.7627    0.0000 H   0  0  0  0  0  0  0  0  0  0  0  0
   10.0793   -4.6427    0.0000 H   0  0  0  0  0  0  0  0  0  0  0  0
    4.5326   -3.1072    0.0000 H   0  0  0  0  0  0  0  0  0  0  0  0
    4.2072   -0.1874    0.0000 H   0  0  0  0  0  0  0  0  0  0  0  0
    3.3972    0.1482    0.0000 H   0  0  0  0  0  0  0  0  0  0  0  0
    3.0616   -0.6619    0.0000 H   0  0  0  0  0  0  0  0  0  0  0  0
   10.9100   -3.3533    0.0000 H   0  0  0  0  0  0  0  0  0  0  0  0
   10.1154   -3.7238    0.0000 H   0  0  0  0  0  0  0  0  0  0  0  0
   10.4859   -4.5185    0.0000 H   0  0  0  0  0  0  0  0  0  0  0  0
    4.3462   -4.5727    0.0000 H   0  0  0  0  0  0  0  0  0  0  0  0
    9.2133   -6.3827    0.0000 H   0  0  0  0  0  0  0  0  0  0  0  0
    2.0000   -2.5926    0.0000 H   0  0  0  0  0  0  0  0  0  0  0  0
    6.1477   -3.2878    0.0000 H   0  0  0  0  0  0  0  0  0  0  0  0
    5.3506   -3.2878    0.0000 H   0  0  0  0  0  0  0  0  0  0  0  0
    6.6152   -3.6427    0.0000 H   0  0  0  0  0  0  0  0  0  0  0  0
    4.2631   -5.2627    0.0000 H   0  0  0  0  0  0  0  0  0  0  0  0
    4.8831   -5.8827    0.0000 H   0  0  0  0  0  0  0  0  0  0  0  0
    5.5031   -5.2627    0.0000 H   0  0  0  0  0  0  0  0  0  0  0  0
    8.3472   -4.6427    0.0000 H   0  0  0  0  0  0  0  0  0  0  0  0
    6.0782   -5.5727    0.0000 H   0  0  0  0  0  0  0  0  0  0  0  0
    5.3569   -3.4807    0.0000 H   0  0  0  0  0  0  0  0  0  0  0  0
    6.2262   -3.3662    0.0000 H   0  0  0  0  0  0  0  0  0  0  0  0
    6.1118   -2.4969    0.0000 H   0  0  0  0  0  0  0  0  0  0  0  0
    7.7912   -4.2997    0.0000 H   0  0  0  0  0  0  0  0  0  0  0  0
    8.0181   -3.4527    0.0000 H   0  0  0  0  0  0  0  0  0  0  0  0
    7.1712   -3.2258    0.0000 H   0  0  0  0  0  0  0  0  0  0  0  0
    7.4812   -6.3827    0.0000 H   0  0  0  0  0  0  0  0  0  0  0  0
  1 35  1  0  0  0  0
  2 30  1  0  0  0  0
  3 26  1  0  0  0  0
  3 34  1  0  0  0  0
  4 32  1  0  0  0  0
  4 39  1  0  0  0  0
  5124  1  0  0  0  0
  6 30  2  0  0  0  0
  7 34  2  0  0  0  0
  8 36  2  0  0  0  0
  9 45  2  0  0  0  0
 10 47  2  0  0  0  0
 11 49  1  0  0  0  0
 11129  1  0  0  0  0
 12 50  1  0  0  0  0
 12130  1  0  0  0  0
 13 62  1  0  0  0  0
 14145  1  0  0  0  0
 15 71  1  0  0  0  0
 16 63  2  0  0  0  0
 17 29  1  0  0  0  0
 17 42  1  0  0  0  0
 17 47  1  0  0  0  0
 18 19  1  0  0  0  0
 18 20  1  0  0  0  0
 18 21  1  0  0  0  0
 18 74  1  6  0  0  0
 19 22  1  0  0  0  0
 19 75  1  0  0  0  0
 19 76  1  0  0  0  0
 20 24  1  0  0  0  0
 20 77  1  0  0  0  0
 20 78  1  0  0  0  0
 21 25  1  0  0  0  0
 21 79  1  0  0  0  0
 21 80  1  0  0  0  0
 22  1  1  0  0  0  0
 22 23  1  0  0  0  0
 22 81  1  6  0  0  0
 23  2  1  0  0  0  0
 23 24  1  0  0  0  0
 23 82  1  1  0  0  0
 24 83  1  0  0  0  0
 24 84  1  0  0  0  0
 25 26  1  0  0  0  0
 25 27  1  0  0  0  0
 25 85  1  1  0  0  0
 26 28  1  0  0  0  0
 26 86  1  1  0  0  0
 27 87  1  0  0  0  0
 27 88  1  0  0  0  0
 27 89  1  0  0  0  0
 28 36  1  0  0  0  0
 28 90  1  0  0  0  0
 28 91  1  0  0  0  0
 29 34  1  0  0  0  0
 29 37  1  0  0  0  0
 29 92  1  1  0  0  0
 30 33  1  0  0  0  0
 31 32  1  0  0  0  0
 31 38  1  0  0  0  0
 31 48  1  0  0  0  0
 31 93  1  1  0  0  0
 32  5  1  6  0  0  0
 32 45  1  0  0  0  0
 33 49  1  0  0  0  0
 33 50  1  0  0  0  0
 33 51  1  0  0  0  0
 35 94  1  0  0  0  0
 35 95  1  0  0  0  0
 35 96  1  0  0  0  0
 36 44  1  0  0  0  0
 37 41  1  0  0  0  0
 37 97  1  0  0  0  0
 37 98  1  0  0  0  0
 38 40  1  0  0  0  0
 38 99  1  0  0  0  0
 38100  1  0  0  0  0
 39 40  1  0  0  0  0
 39 46  1  0  0  0  0
 39101  1  6  0  0  0
 40102  1  0  0  0  0
 40103  1  0  0  0  0
 41 43  1  0  0  0  0
 41106  1  0  0  0  0
 41107  1  0  0  0  0
 42 43  1  0  0  0  0
 42104  1  0  0  0  0
 42105  1  0  0  0  0
 43108  1  0  0  0  0
 43109  1  0  0  0  0
 44 53  1  0  0  0  0
 44 54  1  0  0  0  0
 44110  1  6  0  0  0
 45 47  1  0  0  0  0
 46 52  1  0  0  0  0
 46111  1  0  0  0  0
 46112  1  0  0  0  0
 48113  1  0  0  0  0
 48114  1  0  0  0  0
 48115  1  0  0  0  0
 49116  1  0  0  0  0
 49117  1  0  0  0  0
 50118  1  0  0  0  0
 50119  1  0  0  0  0
 51120  1  0  0  0  0
 51121  1  0  0  0  0
 51122  1  0  0  0  0
 52 13  1  0  0  0  0
 52 55  1  0  0  0  0
 52123  1  6  0  0  0
 53125  1  0  0  0  0
 53126  1  0  0  0  0
 53127  1  0  0  0  0
 54 56  2  0  0  0  0
 54128  1  0  0  0  0
 55 58  1  0  0  0  0
 55 59  2  0  0  0  0
 56 57  1  0  0  0  0
 56 60  1  0  0  0  0
 57 14  1  0  0  0  0
 57 61  1  0  0  0  0
 57131  1  1  0  0  0
 58132  1  0  0  0  0
 58133  1  0  0  0  0
 58134  1  0  0  0  0
 59 65  1  0  0  0  0
 59135  1  0  0  0  0
 60137  1  0  0  0  0
 60138  1  0  0  0  0
 60139  1  0  0  0  0
 61 15  1  0  0  0  0
 61 63  1  0  0  0  0
 61136  1  6  0  0  0
 62140  1  0  0  0  0
 62141  1  0  0  0  0
 62142  1  0  0  0  0
 63 64  1  0  0  0  0
 64 66  1  0  0  0  0
 64 68  1  0  0  0  0
 64143  1  6  0  0  0
 65 69  2  0  0  0  0
 65144  1  0  0  0  0
 66 67  1  0  0  0  0
 66146  1  0  0  0  0
 66147  1  0  0  0  0
 67 70  1  0  0  0  0
 67 73  1  0  0  0  0
 67148  1  1  0  0  0
 68149  1  0  0  0  0
 68150  1  0  0  0  0
 68151  1  0  0  0  0
 69 72  1  0  0  0  0
 69152  1  0  0  0  0
 70 72  2  0  0  0  0
 70153  1  0  0  0  0
 71154  1  0  0  0  0
 71155  1  0  0  0  0
 71156  1  0  0  0  0
 72160  1  0  0  0  0
 73157  1  0  0  0  0
 73158  1  0  0  0  0
 73159  1  0  0  0  0
M  END
>  <PUBCHEM_COMPOUND_CID>
6918289

>  <PUBCHEM_COMPOUND_CANONICALIZED>
1

>  <PUBCHEM_CACTVS_COMPLEXITY>
2010

>  <PUBCHEM_CACTVS_HBOND_ACCEPTOR>
16

>  <PUBCHEM_CACTVS_HBOND_DONOR>
4

>  <PUBCHEM_CACTVS_ROTATABLE_BOND>
11

>  <PUBCHEM_CACTVS_SUBSKEYS>
AAADcfB+PgAAAAAAAAAAAAAAAAAAAAAAAAA8SIAAAAAAAAAAAAAAHgAACAAADzzhgAYCCAMABgCIAqHSGAIAAAAgAAAICAHIAAgbFBYAoSQHUAAH5gCfsAOY6PSOAAAAAAAAAABAAAIAAACAAAAAAAAAAA==

>  <PUBCHEM_IUPAC_INCHI>
InChI=1S/C56H87NO16/c1-33-17-13-12-14-18-34(2)45(68-9)29-41-22-20-39(7)56(67,73-41)51(63)52(64)57-24-16-15-19-42(57)53(65)71-46(30-43(60)35(3)26-38(6)49(62)50(70-11)48(61)37(5)25-33)36(4)27-40-21-23-44(47(28-40)69-10)72-54(66)55(8,31-58)32-59/h12-14,17-18,26,33,35-37,39-42,44-47,49-50,58-59,62,67H,15-16,19-25,27-32H2,1-11H3/b14-12+,17-13+,34-18+,38-26+/t33-,35-,36-,37-,39-,40+,41+,42+,44-,45+,46+,47-,49-,50+,56-/m1/s1

>  <PUBCHEM_IUPAC_INCHIKEY>
CBPNZQVSJQDFBE-FUXHJELOSA-N

>  <PUBCHEM_XLOGP3_AA>
5.6

>  <PUBCHEM_EXACT_MASS>
1029.602486

>  <PUBCHEM_MOLECULAR_FORMULA>
C56H87NO16

>  <PUBCHEM_MOLECULAR_WEIGHT>
1030.28708

>  <PUBCHEM_OPENEYE_CAN_SMILES>
CC1CCC2CC(C(=CC=CC=CC(CC(C(=O)C(C(C(=CC(C(=O)CC(OC(=O)C3CCCCN3C(=O)C(=O)C1(O2)O)C(C)CC4CCC(C(C4)OC)OC(=O)C(C)(CO)CO)C)C)O)OC)C)C)C)OC

>  <PUBCHEM_OPENEYE_ISO_SMILES>
C[C@@H]1CC[C@H]2C[C@@H](/C(=C/C=C/C=C/[C@H](C[C@H](C(=O)[C@@H]([C@@H](/C(=C/[C@H](C(=O)C[C@H](OC(=O)[C@@H]3CCCCN3C(=O)C(=O)[C@@]1(O2)O)[C@H](C)C[C@@H]4CC[C@H]([C@@H](C4)OC)OC(=O)C(C)(CO)CO)C)/C)O)OC)C)C)/C)OC

>  <PUBCHEM_CACTVS_TPSA>
242

>  <PUBCHEM_MONOISOTOPIC_WEIGHT>
1029.602486

>  <PUBCHEM_TOTAL_CHARGE>
0

>  <PUBCHEM_HEAVY_ATOM_COUNT>
73

>  <PUBCHEM_ATOM_DEF_STEREO_COUNT>
15

>  <PUBCHEM_ATOM_UDEF_STEREO_COUNT>
0

>  <PUBCHEM_BOND_DEF_STEREO_COUNT>
4

>  <PUBCHEM_BOND_UDEF_STEREO_COUNT>
0

>  <PUBCHEM_ISOTOPIC_ATOM_COUNT>
0

>  <PUBCHEM_COMPONENT_COUNT>
1

>  <PUBCHEM_CACTVS_TAUTO_COUNT>
15

>  <PUBCHEM_COORDINATE_TYPE>
1
5
255

>  <PUBCHEM_BONDANNOTATIONS>
22  1  5
52  13  5
57  14  6
61  15  5
18  21  5
23  2  6
25  27  6
26  86  5
29  92  5
31  48  6
39  101  6
44  53  5
32  5  6
64  68  5
67  73  6

$$$$
