
 OpenBabel11121517312D

 64 68  0  0  1  0  0  0  0  0999 V2000
    5.4641   -3.2637    0.0000 O   0  0  0  0  0  0  0  0  0  0  0  0
    2.0000    2.7363    0.0000 O   0  0  0  0  0  0  0  0  0  0  0  0
   11.5981    0.2704    0.0000 O   0  0  0  0  0  0  0  0  0  0  0  0
    5.4641   -1.2637    0.0000 N   0  0  0  0  0  0  0  0  0  0  0  0
    3.7320    1.7363    0.0000 N   0  0  0  0  0  0  0  0  0  0  0  0
    4.5981    0.2363    0.0000 N   0  0  0  0  0  0  0  0  0  0  0  0
    5.4641    1.7363    0.0000 N   0  0  0  0  0  0  0  0  0  0  0  0
    7.2241    1.7709    0.0000 N   0  0  0  0  0  0  0  0  0  0  0  0
   12.4583    1.7738    0.0000 N   0  0  0  0  0  0  0  0  0  0  0  0
    4.5981   -1.7637    0.0000 C   0  0  2  0  0  0  0  0  0  0  0  0
    3.7320    2.7363    0.0000 C   0  0  2  0  0  0  0  0  0  0  0  0
    6.3301   -1.7637    0.0000 C   0  0  0  0  0  0  0  0  0  0  0  0
    4.5981   -2.7637    0.0000 C   0  0  0  0  0  0  0  0  0  0  0  0
    5.4641   -0.2637    0.0000 C   0  0  0  0  0  0  0  0  0  0  0  0
    2.8660    1.2363    0.0000 C   0  0  0  0  0  0  0  0  0  0  0  0
    2.8660    3.2363    0.0000 C   0  0  0  0  0  0  0  0  0  0  0  0
    6.3301   -2.7637    0.0000 C   0  0  0  0  0  0  0  0  0  0  0  0
    4.5981    1.2363    0.0000 C   0  0  0  0  0  0  0  0  0  0  0  0
    2.0000    1.7363    0.0000 C   0  0  0  0  0  0  0  0  0  0  0  0
    3.7320   -1.2637    0.0000 C   0  0  0  0  0  0  0  0  0  0  0  0
    6.3301    0.2363    0.0000 C   0  0  0  0  0  0  0  0  0  0  0  0
    4.5981    3.2363    0.0000 C   0  0  0  0  0  0  0  0  0  0  0  0
    6.3301    1.2363    0.0000 C   0  0  0  0  0  0  0  0  0  0  0  0
    7.2241   -0.2984    0.0000 C   0  0  0  0  0  0  0  0  0  0  0  0
    8.1301    0.2154    0.0000 C   0  0  0  0  0  0  0  0  0  0  0  0
    8.1301    1.2571    0.0000 C   0  0  0  0  0  0  0  0  0  0  0  0
    8.9942    1.7604    0.0000 C   0  0  0  0  0  0  0  0  0  0  0  0
    9.8622    1.2638    0.0000 C   0  0  0  0  0  0  0  0  0  0  0  0
    8.9904    2.7604    0.0000 C   0  0  0  0  0  0  0  0  0  0  0  0
   10.7263    1.7671    0.0000 C   0  0  0  0  0  0  0  0  0  0  0  0
    9.8545    3.2637    0.0000 C   0  0  0  0  0  0  0  0  0  0  0  0
   10.7224    2.7671    0.0000 C   0  0  0  0  0  0  0  0  0  0  0  0
   11.5942    1.2704    0.0000 C   0  0  0  0  0  0  0  0  0  0  0  0
   13.3263    1.2771    0.0000 C   0  0  0  0  0  0  0  0  0  0  0  0
    4.5981   -1.1437    0.0000 H   0  0  0  0  0  0  0  0  0  0  0  0
    4.2690    2.4263    0.0000 H   0  0  0  0  0  0  0  0  0  0  0  0
    6.9407   -1.8714    0.0000 H   0  0  0  0  0  0  0  0  0  0  0  0
    6.5422   -1.1811    0.0000 H   0  0  0  0  0  0  0  0  0  0  0  0
    3.9875   -2.6561    0.0000 H   0  0  0  0  0  0  0  0  0  0  0  0
    4.3860   -3.3464    0.0000 H   0  0  0  0  0  0  0  0  0  0  0  0
    2.4675    0.7613    0.0000 H   0  0  0  0  0  0  0  0  0  0  0  0
    3.2646    0.7613    0.0000 H   0  0  0  0  0  0  0  0  0  0  0  0
    3.2646    3.7112    0.0000 H   0  0  0  0  0  0  0  0  0  0  0  0
    2.4675    3.7112    0.0000 H   0  0  0  0  0  0  0  0  0  0  0  0
    6.5422   -3.3464    0.0000 H   0  0  0  0  0  0  0  0  0  0  0  0
    6.9407   -2.6561    0.0000 H   0  0  0  0  0  0  0  0  0  0  0  0
    1.3894    1.8439    0.0000 H   0  0  0  0  0  0  0  0  0  0  0  0
    1.7880    1.1536    0.0000 H   0  0  0  0  0  0  0  0  0  0  0  0
    4.0420   -0.7268    0.0000 H   0  0  0  0  0  0  0  0  0  0  0  0
    3.1951   -0.9537    0.0000 H   0  0  0  0  0  0  0  0  0  0  0  0
    3.4220   -1.8007    0.0000 H   0  0  0  0  0  0  0  0  0  0  0  0
    4.9081    2.6993    0.0000 H   0  0  0  0  0  0  0  0  0  0  0  0
    5.1350    3.5463    0.0000 H   0  0  0  0  0  0  0  0  0  0  0  0
    4.2881    3.7732    0.0000 H   0  0  0  0  0  0  0  0  0  0  0  0
    7.2169   -0.9184    0.0000 H   0  0  0  0  0  0  0  0  0  0  0  0
    8.6659   -0.0966    0.0000 H   0  0  0  0  0  0  0  0  0  0  0  0
    9.8646    0.6438    0.0000 H   0  0  0  0  0  0  0  0  0  0  0  0
    8.4522    3.0683    0.0000 H   0  0  0  0  0  0  0  0  0  0  0  0
    9.8521    3.8837    0.0000 H   0  0  0  0  0  0  0  0  0  0  0  0
   11.2581    3.0792    0.0000 H   0  0  0  0  0  0  0  0  0  0  0  0
   12.4559    2.3938    0.0000 H   0  0  0  0  0  0  0  0  0  0  0  0
   13.0183    0.7390    0.0000 H   0  0  0  0  0  0  0  0  0  0  0  0
   13.8644    0.9692    0.0000 H   0  0  0  0  0  0  0  0  0  0  0  0
   13.6342    1.8152    0.0000 H   0  0  0  0  0  0  0  0  0  0  0  0
  1 13  1  0  0  0  0
  1 17  1  0  0  0  0
  2 16  1  0  0  0  0
  2 19  1  0  0  0  0
  3 33  2  0  0  0  0
  4 10  1  0  0  0  0
  4 12  1  0  0  0  0
  4 14  1  0  0  0  0
  5 11  1  0  0  0  0
  5 15  1  0  0  0  0
  5 18  1  0  0  0  0
  6 14  2  0  0  0  0
  6 18  1  0  0  0  0
  7 18  2  0  0  0  0
  7 23  1  0  0  0  0
  8 23  1  0  0  0  0
  8 26  2  0  0  0  0
  9 33  1  0  0  0  0
  9 34  1  0  0  0  0
  9 61  1  0  0  0  0
 10 13  1  0  0  0  0
 10 20  1  0  0  0  0
 10 35  1  1  0  0  0
 11 16  1  0  0  0  0
 11 22  1  0  0  0  0
 11 36  1  1  0  0  0
 12 17  1  0  0  0  0
 12 37  1  0  0  0  0
 12 38  1  0  0  0  0
 13 39  1  0  0  0  0
 13 40  1  0  0  0  0
 14 21  1  0  0  0  0
 15 19  1  0  0  0  0
 15 41  1  0  0  0  0
 15 42  1  0  0  0  0
 16 43  1  0  0  0  0
 16 44  1  0  0  0  0
 17 45  1  0  0  0  0
 17 46  1  0  0  0  0
 19 47  1  0  0  0  0
 19 48  1  0  0  0  0
 20 49  1  0  0  0  0
 20 50  1  0  0  0  0
 20 51  1  0  0  0  0
 21 23  2  0  0  0  0
 21 24  1  0  0  0  0
 22 52  1  0  0  0  0
 22 53  1  0  0  0  0
 22 54  1  0  0  0  0
 24 25  2  0  0  0  0
 24 55  1  0  0  0  0
 25 26  1  0  0  0  0
 25 56  1  0  0  0  0
 26 27  1  0  0  0  0
 27 28  2  0  0  0  0
 27 29  1  0  0  0  0
 28 30  1  0  0  0  0
 28 57  1  0  0  0  0
 29 31  2  0  0  0  0
 29 58  1  0  0  0  0
 30 32  2  0  0  0  0
 30 33  1  0  0  0  0
 31 32  1  0  0  0  0
 31 59  1  0  0  0  0
 32 60  1  0  0  0  0
 34 62  1  0  0  0  0
 34 63  1  0  0  0  0
 34 64  1  0  0  0  0
M  END
>  <PUBCHEM_COMPOUND_CID>
25262792

>  <PUBCHEM_COMPOUND_CANONICALIZED>
1

>  <PUBCHEM_CACTVS_COMPLEXITY>
698

>  <PUBCHEM_CACTVS_HBOND_ACCEPTOR>
8

>  <PUBCHEM_CACTVS_HBOND_DONOR>
1

>  <PUBCHEM_CACTVS_ROTATABLE_BOND>
4

>  <PUBCHEM_CACTVS_SUBSKEYS>
AAADceB7sAAAAAAAAAAAAAAAAAAAAAAAAAA8WLFiAAAAAACx/AAAHgAQAAAADCjhnwYzsN/IFACoAydydACCgCklAqAJmKE4ZNiKKPLA3dGHJQhoggLYyacYicCeAAACAAAAAAAAAAQAAAAAAAAAAAAAAA==

>  <PUBCHEM_IUPAC_OPENEYE_NAME>
3-[2,4-bis[(3S)-3-methylmorpholin-4-yl]pyrido[2,3-d]pyrimidin-7-yl]-N-methyl-benzamide

>  <PUBCHEM_IUPAC_CAS_NAME>
3-[2,4-bis[(3S)-3-methyl-4-morpholinyl]-7-pyrido[2,3-d]pyrimidinyl]-N-methylbenzamide

>  <PUBCHEM_IUPAC_NAME>
3-[2,4-bis[(3S)-3-methylmorpholin-4-yl]pyrido[2,3-d]pyrimidin-7-yl]-N-methylbenzamide

>  <PUBCHEM_IUPAC_SYSTEMATIC_NAME>
3-[2,4-bis[(3S)-3-methylmorpholin-4-yl]pyrido[2,3-d]pyrimidin-7-yl]-N-methyl-benzamide

>  <PUBCHEM_IUPAC_TRADITIONAL_NAME>
3-[2,4-bis[(3S)-3-methylmorpholino]pyrido[2,3-d]pyrimidin-7-yl]-N-methyl-benzamide

>  <PUBCHEM_IUPAC_INCHI>
InChI=1S/C25H30N6O3/c1-16-14-33-11-9-30(16)23-20-7-8-21(18-5-4-6-19(13-18)24(32)26-3)27-22(20)28-25(29-23)31-10-12-34-15-17(31)2/h4-8,13,16-17H,9-12,14-15H2,1-3H3,(H,26,32)/t16-,17-/m0/s1

>  <PUBCHEM_IUPAC_INCHIKEY>
JUSFANSTBFGBAF-IRXDYDNUSA-N

>  <PUBCHEM_XLOGP3_AA>
2.8

>  <PUBCHEM_EXACT_MASS>
462.237939

>  <PUBCHEM_MOLECULAR_FORMULA>
C25H30N6O3

>  <PUBCHEM_MOLECULAR_WEIGHT>
462.5441

>  <PUBCHEM_OPENEYE_CAN_SMILES>
CC1COCCN1C2=NC(=NC3=C2C=CC(=N3)C4=CC(=CC=C4)C(=O)NC)N5CCOCC5C

>  <PUBCHEM_OPENEYE_ISO_SMILES>
C[C@H]1COCCN1C2=NC(=NC3=C2C=CC(=N3)C4=CC(=CC=C4)C(=O)NC)N5CCOC[C@@H]5C

>  <PUBCHEM_CACTVS_TPSA>
92.7

>  <PUBCHEM_MONOISOTOPIC_WEIGHT>
462.237939

>  <PUBCHEM_TOTAL_CHARGE>
0

>  <PUBCHEM_HEAVY_ATOM_COUNT>
34

>  <PUBCHEM_ATOM_DEF_STEREO_COUNT>
2

>  <PUBCHEM_ATOM_UDEF_STEREO_COUNT>
0

>  <PUBCHEM_BOND_DEF_STEREO_COUNT>
0

>  <PUBCHEM_BOND_UDEF_STEREO_COUNT>
0

>  <PUBCHEM_ISOTOPIC_ATOM_COUNT>
0

>  <PUBCHEM_COMPONENT_COUNT>
1

>  <PUBCHEM_CACTVS_TAUTO_COUNT>
2

>  <PUBCHEM_COORDINATE_TYPE>
1
5
255

>  <PUBCHEM_BONDANNOTATIONS>
10  20  6
11  22  6
14  21  8
21  23  8
21  24  8
24  25  8
25  26  8
27  28  8
27  29  8
28  30  8
29  31  8
30  32  8
31  32  8
6  14  8
6  18  8
7  18  8
7  23  8
8  23  8
8  26  8

$$$$
