
 OpenBabel11121517312D

 52 57  0  0  0  0  0  0  0  0999 V2000
    2.8930   -3.6622    0.0000 O   0  0  0  0  0  0  0  0  0  0  0  0
   10.7684    1.2601    0.0000 N   0  0  0  0  0  0  0  0  0  0  0  0
    6.7919   -0.9001    0.0000 N   0  0  0  0  0  0  0  0  0  0  0  0
    4.1498   -2.4070    0.0000 N   0  0  0  0  0  0  0  0  0  0  0  0
    3.2036   -1.1023    0.0000 N   0  0  0  0  0  0  0  0  0  0  0  0
    2.6200   -1.9070    0.0000 N   0  0  0  0  0  0  0  0  0  0  0  0
   10.2717    2.1281    0.0000 C   0  0  0  0  0  0  0  0  0  0  0  0
   11.1396    2.6247    0.0000 C   0  0  0  0  0  0  0  0  0  0  0  0
    9.7750    2.9960    0.0000 C   0  0  0  0  0  0  0  0  0  0  0  0
   10.6430    3.4927    0.0000 C   0  0  0  0  0  0  0  0  0  0  0  0
    9.4038    1.6314    0.0000 C   0  0  0  0  0  0  0  0  0  0  0  0
    8.5397    2.1348    0.0000 C   0  0  0  0  0  0  0  0  0  0  0  0
    9.3999    0.6314    0.0000 C   0  0  0  0  0  0  0  0  0  0  0  0
    7.6717    1.6381    0.0000 C   0  0  0  0  0  0  0  0  0  0  0  0
    8.5320    0.1348    0.0000 C   0  0  0  0  0  0  0  0  0  0  0  0
    7.6679    0.6381    0.0000 C   0  0  0  0  0  0  0  0  0  0  0  0
    6.7999    0.1415    0.0000 C   0  0  0  0  0  0  0  0  0  0  0  0
    5.8978    0.6623    0.0000 C   0  0  0  0  0  0  0  0  0  0  0  0
    5.0158   -0.9070    0.0000 C   0  0  0  0  0  0  0  0  0  0  0  0
    5.8819   -1.4070    0.0000 C   0  0  0  0  0  0  0  0  0  0  0  0
    4.9998    0.1345    0.0000 C   0  0  0  0  0  0  0  0  0  0  0  0
    5.8940    1.6623    0.0000 C   0  0  0  0  0  0  0  0  0  0  0  0
    4.1498   -1.4070    0.0000 C   0  0  0  0  0  0  0  0  0  0  0  0
    5.8819   -2.4070    0.0000 C   0  0  0  0  0  0  0  0  0  0  0  0
    5.0158   -2.9070    0.0000 C   0  0  0  0  0  0  0  0  0  0  0  0
    6.7581    2.1656    0.0000 C   0  0  0  0  0  0  0  0  0  0  0  0
    5.0260    2.1589    0.0000 C   0  0  0  0  0  0  0  0  0  0  0  0
    3.2036   -2.7117    0.0000 C   0  0  0  0  0  0  0  0  0  0  0  0
    6.7542    3.1656    0.0000 C   0  0  0  0  0  0  0  0  0  0  0  0
    5.0222    3.1589    0.0000 C   0  0  0  0  0  0  0  0  0  0  0  0
    5.8863    3.6622    0.0000 C   0  0  0  0  0  0  0  0  0  0  0  0
    9.4671    3.5342    0.0000 H   0  0  0  0  0  0  0  0  0  0  0  0
    9.2369    2.6881    0.0000 H   0  0  0  0  0  0  0  0  0  0  0  0
   11.4476    2.0866    0.0000 H   0  0  0  0  0  0  0  0  0  0  0  0
   11.6778    2.9327    0.0000 H   0  0  0  0  0  0  0  0  0  0  0  0
   11.1811    3.8006    0.0000 H   0  0  0  0  0  0  0  0  0  0  0  0
   10.3351    4.0308    0.0000 H   0  0  0  0  0  0  0  0  0  0  0  0
   11.3883    1.2578    0.0000 H   0  0  0  0  0  0  0  0  0  0  0  0
   10.4563    0.7244    0.0000 H   0  0  0  0  0  0  0  0  0  0  0  0
    8.5420    2.7548    0.0000 H   0  0  0  0  0  0  0  0  0  0  0  0
    9.9356    0.3194    0.0000 H   0  0  0  0  0  0  0  0  0  0  0  0
    7.1360    1.9502    0.0000 H   0  0  0  0  0  0  0  0  0  0  0  0
    8.5296   -0.4852    0.0000 H   0  0  0  0  0  0  0  0  0  0  0  0
    4.4593    0.4383    0.0000 H   0  0  0  0  0  0  0  0  0  0  0  0
    6.4188   -2.7170    0.0000 H   0  0  0  0  0  0  0  0  0  0  0  0
    5.0158   -3.5270    0.0000 H   0  0  0  0  0  0  0  0  0  0  0  0
    7.2962    1.8577    0.0000 H   0  0  0  0  0  0  0  0  0  0  0  0
    4.4903    1.8468    0.0000 H   0  0  0  0  0  0  0  0  0  0  0  0
    2.0000   -1.9070    0.0000 H   0  0  0  0  0  0  0  0  0  0  0  0
    7.2900    3.4776    0.0000 H   0  0  0  0  0  0  0  0  0  0  0  0
    4.4840    3.4668    0.0000 H   0  0  0  0  0  0  0  0  0  0  0  0
    5.8839    4.2822    0.0000 H   0  0  0  0  0  0  0  0  0  0  0  0
  1 28  2  0  0  0  0
  2  7  1  0  0  0  0
  2 38  1  0  0  0  0
  2 39  1  0  0  0  0
  3 17  1  0  0  0  0
  3 20  2  0  0  0  0
  4 23  1  0  0  0  0
  4 25  1  0  0  0  0
  4 28  1  0  0  0  0
  5  6  1  0  0  0  0
  5 23  2  0  0  0  0
  6 28  1  0  0  0  0
  6 49  1  0  0  0  0
  7  8  1  0  0  0  0
  7  9  1  0  0  0  0
  7 11  1  0  0  0  0
  8 10  1  0  0  0  0
  8 34  1  0  0  0  0
  8 35  1  0  0  0  0
  9 10  1  0  0  0  0
  9 32  1  0  0  0  0
  9 33  1  0  0  0  0
 10 36  1  0  0  0  0
 10 37  1  0  0  0  0
 11 12  2  0  0  0  0
 11 13  1  0  0  0  0
 12 14  1  0  0  0  0
 12 40  1  0  0  0  0
 13 15  2  0  0  0  0
 13 41  1  0  0  0  0
 14 16  2  0  0  0  0
 14 42  1  0  0  0  0
 15 16  1  0  0  0  0
 15 43  1  0  0  0  0
 16 17  1  0  0  0  0
 17 18  2  0  0  0  0
 18 21  1  0  0  0  0
 18 22  1  0  0  0  0
 19 20  1  0  0  0  0
 19 21  2  0  0  0  0
 19 23  1  0  0  0  0
 20 24  1  0  0  0  0
 21 44  1  0  0  0  0
 22 26  2  0  0  0  0
 22 27  1  0  0  0  0
 24 25  2  0  0  0  0
 24 45  1  0  0  0  0
 25 46  1  0  0  0  0
 26 29  1  0  0  0  0
 26 47  1  0  0  0  0
 27 30  2  0  0  0  0
 27 48  1  0  0  0  0
 29 31  2  0  0  0  0
 29 50  1  0  0  0  0
 30 31  1  0  0  0  0
 30 51  1  0  0  0  0
 31 52  1  0  0  0  0
M  END
>  <PUBCHEM_COMPOUND_CID>
24964624

>  <PUBCHEM_COMPOUND_CANONICALIZED>
1

>  <PUBCHEM_CACTVS_COMPLEXITY>
760

>  <PUBCHEM_CACTVS_HBOND_ACCEPTOR>
4

>  <PUBCHEM_CACTVS_HBOND_DONOR>
2

>  <PUBCHEM_CACTVS_ROTATABLE_BOND>
3

>  <PUBCHEM_CACTVS_SUBSKEYS>
AAADceB7oAAAAAAAAAAAAAAAAABgAQAAAAA8YIEAAAAAAECB0AAAHgAYAAAADIjBHgQxgJNqEACoAyZmdACSgCAhAiAPmCA4RJiIIOLA0ZGEIAhgngLIyAcQgMAOwAAAAAAAAACAAAAAAAAAAAAAAAAAAA==

>  <PUBCHEM_IUPAC_OPENEYE_NAME>
8-[4-(1-aminocyclobutyl)phenyl]-9-phenyl-2H-[1,2,4]triazolo[3,4-f][1,6]naphthyridin-3-one

>  <PUBCHEM_IUPAC_CAS_NAME>
8-[4-(1-aminocyclobutyl)phenyl]-9-phenyl-2H-[1,2,4]triazolo[3,4-f][1,6]naphthyridin-3-one

>  <PUBCHEM_IUPAC_NAME>
8-[4-(1-aminocyclobutyl)phenyl]-9-phenyl-2H-[1,2,4]triazolo[3,4-f][1,6]naphthyridin-3-one

>  <PUBCHEM_IUPAC_SYSTEMATIC_NAME>
8-[4-(1-azanylcyclobutyl)phenyl]-9-phenyl-2H-[1,2,4]triazolo[3,4-f][1,6]naphthyridin-3-one

>  <PUBCHEM_IUPAC_TRADITIONAL_NAME>
8-[4-(1-aminocyclobutyl)phenyl]-9-phenyl-2H-[1,2,4]triazolo[3,4-f][1,6]naphthyridin-3-one

>  <PUBCHEM_IUPAC_INCHI>
InChI=1S/C25H21N5O/c26-25(12-4-13-25)18-9-7-17(8-10-18)22-19(16-5-2-1-3-6-16)15-20-21(27-22)11-14-30-23(20)28-29-24(30)31/h1-3,5-11,14-15H,4,12-13,26H2,(H,29,31)

>  <PUBCHEM_IUPAC_INCHIKEY>
ULDXWLCXEDXJGE-UHFFFAOYSA-N

>  <PUBCHEM_XLOGP3_AA>
3

>  <PUBCHEM_EXACT_MASS>
407.17461

>  <PUBCHEM_MOLECULAR_FORMULA>
C25H21N5O

>  <PUBCHEM_MOLECULAR_WEIGHT>
407.46714

>  <PUBCHEM_OPENEYE_CAN_SMILES>
C1CC(C1)(C2=CC=C(C=C2)C3=C(C=C4C(=N3)C=CN5C4=NNC5=O)C6=CC=CC=C6)N

>  <PUBCHEM_OPENEYE_ISO_SMILES>
C1CC(C1)(C2=CC=C(C=C2)C3=C(C=C4C(=N3)C=CN5C4=NNC5=O)C6=CC=CC=C6)N

>  <PUBCHEM_CACTVS_TPSA>
83.6

>  <PUBCHEM_MONOISOTOPIC_WEIGHT>
407.17461

>  <PUBCHEM_TOTAL_CHARGE>
0

>  <PUBCHEM_HEAVY_ATOM_COUNT>
31

>  <PUBCHEM_ATOM_DEF_STEREO_COUNT>
0

>  <PUBCHEM_ATOM_UDEF_STEREO_COUNT>
0

>  <PUBCHEM_BOND_DEF_STEREO_COUNT>
0

>  <PUBCHEM_BOND_UDEF_STEREO_COUNT>
0

>  <PUBCHEM_ISOTOPIC_ATOM_COUNT>
0

>  <PUBCHEM_COMPONENT_COUNT>
1

>  <PUBCHEM_CACTVS_TAUTO_COUNT>
2

>  <PUBCHEM_COORDINATE_TYPE>
1
5
255

>  <PUBCHEM_BONDANNOTATIONS>
11  12  8
11  13  8
12  14  8
13  15  8
14  16  8
15  16  8
17  18  8
18  21  8
19  20  8
19  21  8
19  23  8
20  24  8
22  26  8
22  27  8
24  25  8
26  29  8
27  30  8
29  31  8
3  17  8
3  20  8
30  31  8
4  23  8
4  25  8
4  28  8
5  23  8
5  6  8
6  28  8

$$$$
