
 OpenBabel11121517312D

 51 54  0  0  0  0  0  0  0  0999 V2000
    6.3301   -3.0000    0.0000 F   0  0  0  0  0  0  0  0  0  0  0  0
    2.8660   -3.0000    0.0000 O   0  0  0  0  0  0  0  0  0  0  0  0
    6.3301    0.0000    0.0000 O   0  0  0  0  0  0  0  0  0  0  0  0
    9.7942    3.0000    0.0000 O   0  0  0  0  0  0  0  0  0  0  0  0
    5.4641   -1.5000    0.0000 N   0  0  0  0  0  0  0  0  0  0  0  0
    8.9282    0.5000    0.0000 N   0  0  0  0  0  0  0  0  0  0  0  0
    8.9282    1.5000    0.0000 N   0  0  0  0  0  0  0  0  0  0  0  0
    3.7320   -2.5000    0.0000 C   0  0  0  0  0  0  0  0  0  0  0  0
    3.7320   -1.5000    0.0000 C   0  0  0  0  0  0  0  0  0  0  0  0
    4.5981   -3.0000    0.0000 C   0  0  0  0  0  0  0  0  0  0  0  0
    4.5981   -1.0000    0.0000 C   0  0  0  0  0  0  0  0  0  0  0  0
    5.4641   -2.5000    0.0000 C   0  0  0  0  0  0  0  0  0  0  0  0
    6.3301   -1.0000    0.0000 C   0  0  0  0  0  0  0  0  0  0  0  0
    7.1962   -1.5000    0.0000 C   0  0  0  0  0  0  0  0  0  0  0  0
    2.0000   -2.5000    0.0000 C   0  0  0  0  0  0  0  0  0  0  0  0
    8.0622   -1.0000    0.0000 C   0  0  0  0  0  0  0  0  0  0  0  0
    8.9282   -1.5000    0.0000 C   0  0  0  0  0  0  0  0  0  0  0  0
    7.1962   -2.5000    0.0000 C   0  0  0  0  0  0  0  0  0  0  0  0
    9.7942   -1.0000    0.0000 C   0  0  0  0  0  0  0  0  0  0  0  0
    8.9282   -2.5000    0.0000 C   0  0  0  0  0  0  0  0  0  0  0  0
    9.7942    0.0000    0.0000 C   0  0  0  0  0  0  0  0  0  0  0  0
    8.0622   -3.0000    0.0000 C   0  0  0  0  0  0  0  0  0  0  0  0
   10.6603    0.5000    0.0000 C   0  0  0  0  0  0  0  0  0  0  0  0
   10.6603    1.5000    0.0000 C   0  0  0  0  0  0  0  0  0  0  0  0
   11.5542   -0.0347    0.0000 C   0  0  0  0  0  0  0  0  0  0  0  0
    9.7942    2.0000    0.0000 C   0  0  0  0  0  0  0  0  0  0  0  0
   11.5542    2.0347    0.0000 C   0  0  0  0  0  0  0  0  0  0  0  0
   12.4603    0.4792    0.0000 C   0  0  0  0  0  0  0  0  0  0  0  0
   12.4603    1.5208    0.0000 C   0  0  0  0  0  0  0  0  0  0  0  0
    3.7320   -3.1200    0.0000 H   0  0  0  0  0  0  0  0  0  0  0  0
    4.1996   -3.4750    0.0000 H   0  0  0  0  0  0  0  0  0  0  0  0
    4.9966   -3.4750    0.0000 H   0  0  0  0  0  0  0  0  0  0  0  0
    3.5200   -0.9174    0.0000 H   0  0  0  0  0  0  0  0  0  0  0  0
    3.1215   -1.6077    0.0000 H   0  0  0  0  0  0  0  0  0  0  0  0
    5.6762   -3.0826    0.0000 H   0  0  0  0  0  0  0  0  0  0  0  0
    6.0747   -2.3923    0.0000 H   0  0  0  0  0  0  0  0  0  0  0  0
    4.9966   -0.5251    0.0000 H   0  0  0  0  0  0  0  0  0  0  0  0
    4.1996   -0.5251    0.0000 H   0  0  0  0  0  0  0  0  0  0  0  0
    8.0622   -0.3800    0.0000 H   0  0  0  0  0  0  0  0  0  0  0  0
    2.3100   -1.9631    0.0000 H   0  0  0  0  0  0  0  0  0  0  0  0
    1.4631   -2.1900    0.0000 H   0  0  0  0  0  0  0  0  0  0  0  0
    1.6900   -3.0369    0.0000 H   0  0  0  0  0  0  0  0  0  0  0  0
   10.0063   -1.5826    0.0000 H   0  0  0  0  0  0  0  0  0  0  0  0
   10.4048   -0.8923    0.0000 H   0  0  0  0  0  0  0  0  0  0  0  0
    9.4651   -2.8100    0.0000 H   0  0  0  0  0  0  0  0  0  0  0  0
    8.0622   -3.6200    0.0000 H   0  0  0  0  0  0  0  0  0  0  0  0
   11.5470   -0.6546    0.0000 H   0  0  0  0  0  0  0  0  0  0  0  0
   11.5470    2.6546    0.0000 H   0  0  0  0  0  0  0  0  0  0  0  0
    8.3913    1.8100    0.0000 H   0  0  0  0  0  0  0  0  0  0  0  0
   12.9960    0.1671    0.0000 H   0  0  0  0  0  0  0  0  0  0  0  0
   12.9960    1.8329    0.0000 H   0  0  0  0  0  0  0  0  0  0  0  0
  1 18  1  0  0  0  0
  2  8  1  0  0  0  0
  2 15  1  0  0  0  0
  3 13  2  0  0  0  0
  4 26  2  0  0  0  0
  5 11  1  0  0  0  0
  5 12  1  0  0  0  0
  5 13  1  0  0  0  0
  6  7  1  0  0  0  0
  6 21  2  0  0  0  0
  7 26  1  0  0  0  0
  7 49  1  0  0  0  0
  8  9  1  0  0  0  0
  8 10  1  0  0  0  0
  8 30  1  0  0  0  0
  9 11  1  0  0  0  0
  9 33  1  0  0  0  0
  9 34  1  0  0  0  0
 10 12  1  0  0  0  0
 10 31  1  0  0  0  0
 10 32  1  0  0  0  0
 11 37  1  0  0  0  0
 11 38  1  0  0  0  0
 12 35  1  0  0  0  0
 12 36  1  0  0  0  0
 13 14  1  0  0  0  0
 14 16  1  0  0  0  0
 14 18  2  0  0  0  0
 15 40  1  0  0  0  0
 15 41  1  0  0  0  0
 15 42  1  0  0  0  0
 16 17  2  0  0  0  0
 16 39  1  0  0  0  0
 17 19  1  0  0  0  0
 17 20  1  0  0  0  0
 18 22  1  0  0  0  0
 19 21  1  0  0  0  0
 19 43  1  0  0  0  0
 19 44  1  0  0  0  0
 20 22  2  0  0  0  0
 20 45  1  0  0  0  0
 21 23  1  0  0  0  0
 22 46  1  0  0  0  0
 23 24  1  0  0  0  0
 23 25  2  0  0  0  0
 24 26  1  0  0  0  0
 24 27  2  0  0  0  0
 25 28  1  0  0  0  0
 25 47  1  0  0  0  0
 27 29  1  0  0  0  0
 27 48  1  0  0  0  0
 28 29  2  0  0  0  0
 28 50  1  0  0  0  0
 29 51  1  0  0  0  0
M  END
>  <PUBCHEM_COMPOUND_CID>
44199317

>  <PUBCHEM_COMPOUND_CANONICALIZED>
1

>  <PUBCHEM_CACTVS_COMPLEXITY>
647

>  <PUBCHEM_CACTVS_HBOND_ACCEPTOR>
5

>  <PUBCHEM_CACTVS_HBOND_DONOR>
1

>  <PUBCHEM_CACTVS_ROTATABLE_BOND>
4

>  <PUBCHEM_CACTVS_SUBSKEYS>
AAADceB7MQAAAAAAAAAAAAAAAAAAAAAAAAA8YIEAAAAAAACBQAAAHwAYAAAADBzhmA4yAINiBACoAyFyEACSAAAkAAAaiAE4BNgIILKAlRGEIQhijgCIiYcYiMCOgAACAAAQAAAAAAQAACAAAAAAAAAAAA==

>  <PUBCHEM_IUPAC_OPENEYE_NAME>
4-[[4-fluoro-3-(4-methoxypiperidine-1-carbonyl)phenyl]methyl]-2H-phthalazin-1-one

>  <PUBCHEM_IUPAC_CAS_NAME>
4-[[4-fluoro-3-[(4-methoxy-1-piperidinyl)-oxomethyl]phenyl]methyl]-2H-phthalazin-1-one

>  <PUBCHEM_IUPAC_NAME>
4-[[4-fluoro-3-(4-methoxypiperidine-1-carbonyl)phenyl]methyl]-2H-phthalazin-1-one

>  <PUBCHEM_IUPAC_SYSTEMATIC_NAME>
4-[[4-fluoranyl-3-(4-methoxypiperidin-1-yl)carbonyl-phenyl]methyl]-2H-phthalazin-1-one

>  <PUBCHEM_IUPAC_TRADITIONAL_NAME>
4-[4-fluoro-3-(4-methoxypiperidine-1-carbonyl)benzyl]-2H-phthalazin-1-one

>  <PUBCHEM_IUPAC_INCHI>
InChI=1S/C22H22FN3O3/c1-29-15-8-10-26(11-9-15)22(28)18-12-14(6-7-19(18)23)13-20-16-4-2-3-5-17(16)21(27)25-24-20/h2-7,12,15H,8-11,13H2,1H3,(H,25,27)

>  <PUBCHEM_IUPAC_INCHIKEY>
HYNBNUYQTQIHJK-UHFFFAOYSA-N

>  <PUBCHEM_XLOGP3_AA>
2.6

>  <PUBCHEM_EXACT_MASS>
395.16452

>  <PUBCHEM_MOLECULAR_FORMULA>
C22H22FN3O3

>  <PUBCHEM_MOLECULAR_WEIGHT>
395.426783

>  <PUBCHEM_OPENEYE_CAN_SMILES>
COC1CCN(CC1)C(=O)C2=C(C=CC(=C2)CC3=NNC(=O)C4=CC=CC=C43)F

>  <PUBCHEM_OPENEYE_ISO_SMILES>
COC1CCN(CC1)C(=O)C2=C(C=CC(=C2)CC3=NNC(=O)C4=CC=CC=C43)F

>  <PUBCHEM_CACTVS_TPSA>
71

>  <PUBCHEM_MONOISOTOPIC_WEIGHT>
395.16452

>  <PUBCHEM_TOTAL_CHARGE>
0

>  <PUBCHEM_HEAVY_ATOM_COUNT>
29

>  <PUBCHEM_ATOM_DEF_STEREO_COUNT>
0

>  <PUBCHEM_ATOM_UDEF_STEREO_COUNT>
0

>  <PUBCHEM_BOND_DEF_STEREO_COUNT>
0

>  <PUBCHEM_BOND_UDEF_STEREO_COUNT>
0

>  <PUBCHEM_ISOTOPIC_ATOM_COUNT>
0

>  <PUBCHEM_COMPONENT_COUNT>
1

>  <PUBCHEM_CACTVS_TAUTO_COUNT>
2

>  <PUBCHEM_COORDINATE_TYPE>
1
5
255

>  <PUBCHEM_BONDANNOTATIONS>
14  16  8
14  18  8
16  17  8
17  20  8
18  22  8
20  22  8
21  23  8
23  24  8
23  25  8
24  26  8
24  27  8
25  28  8
27  29  8
28  29  8
6  21  8
6  7  8
7  26  8

$$$$
