
 OpenBabel11121517312D

 57 60  0  0  0  0  0  0  0  0999 V2000
    9.1243   -3.7483    0.0000 F   0  0  0  0  0  0  0  0  0  0  0  0
    3.8660   -0.7175    0.0000 O   0  0  0  0  0  0  0  0  0  0  0  0
    2.1340   -2.7175    0.0000 O   0  0  0  0  0  0  0  0  0  0  0  0
   12.6038    0.2383    0.0000 O   0  0  0  0  0  0  0  0  0  0  0  0
   10.8834    3.2450    0.0000 O   0  0  0  0  0  0  0  0  0  0  0  0
   12.6115    2.2383    0.0000 O   0  0  0  0  0  0  0  0  0  0  0  0
    3.8660   -2.7175    0.0000 N   0  0  0  0  0  0  0  0  0  0  0  0
    5.6260   -2.7522    0.0000 N   0  0  0  0  0  0  0  0  0  0  0  0
    7.3962   -2.7416    0.0000 N   0  0  0  0  0  0  0  0  0  0  0  0
    9.1398    0.2517    0.0000 N   0  0  0  0  0  0  0  0  0  0  0  0
    8.2680   -1.2450    0.0000 N   0  0  0  0  0  0  0  0  0  0  0  0
   10.0000   -1.2517    0.0000 N   0  0  0  0  0  0  0  0  0  0  0  0
    3.0000   -1.2175    0.0000 C   0  0  0  0  0  0  0  0  0  0  0  0
    3.0000   -2.2175    0.0000 C   0  0  0  0  0  0  0  0  0  0  0  0
    2.0000   -1.2175    0.0000 C   0  0  0  0  0  0  0  0  0  0  0  0
    2.5000   -0.3515    0.0000 C   0  0  0  0  0  0  0  0  0  0  0  0
    4.7320   -1.2175    0.0000 C   0  0  0  0  0  0  0  0  0  0  0  0
    4.7320   -2.2175    0.0000 C   0  0  0  0  0  0  0  0  0  0  0  0
    5.6260   -0.6828    0.0000 C   0  0  0  0  0  0  0  0  0  0  0  0
    6.5321   -2.2383    0.0000 C   0  0  0  0  0  0  0  0  0  0  0  0
    6.5321   -1.1967    0.0000 C   0  0  0  0  0  0  0  0  0  0  0  0
    8.2641   -2.2450    0.0000 C   0  0  0  0  0  0  0  0  0  0  0  0
   10.0077    0.7483    0.0000 C   0  0  0  0  0  0  0  0  0  0  0  0
   10.0116    1.7483    0.0000 C   0  0  0  0  0  0  0  0  0  0  0  0
   10.8718    0.2450    0.0000 C   0  0  0  0  0  0  0  0  0  0  0  0
   11.7397    0.7416    0.0000 C   0  0  0  0  0  0  0  0  0  0  0  0
   10.8795    2.2450    0.0000 C   0  0  0  0  0  0  0  0  0  0  0  0
   11.7436    1.7416    0.0000 C   0  0  0  0  0  0  0  0  0  0  0  0
    9.1359   -0.7483    0.0000 C   0  0  0  0  0  0  0  0  0  0  0  0
    9.1282   -2.7483    0.0000 C   0  0  0  0  0  0  0  0  0  0  0  0
    9.9961   -2.2516    0.0000 C   0  0  0  0  0  0  0  0  0  0  0  0
   12.6154    3.2383    0.0000 C   0  0  0  0  0  0  0  0  0  0  0  0
   13.4718    0.7350    0.0000 C   0  0  0  0  0  0  0  0  0  0  0  0
   10.0193    3.7483    0.0000 C   0  0  0  0  0  0  0  0  0  0  0  0
    2.0000   -0.5975    0.0000 H   0  0  0  0  0  0  0  0  0  0  0  0
    1.3800   -1.2175    0.0000 H   0  0  0  0  0  0  0  0  0  0  0  0
    3.0369   -0.0415    0.0000 H   0  0  0  0  0  0  0  0  0  0  0  0
    2.1900    0.1855    0.0000 H   0  0  0  0  0  0  0  0  0  0  0  0
    1.9631   -0.6615    0.0000 H   0  0  0  0  0  0  0  0  0  0  0  0
    2.0000   -1.8375    0.0000 H   0  0  0  0  0  0  0  0  0  0  0  0
    3.8660   -3.3375    0.0000 H   0  0  0  0  0  0  0  0  0  0  0  0
    5.6188   -0.0629    0.0000 H   0  0  0  0  0  0  0  0  0  0  0  0
    7.0678   -0.8846    0.0000 H   0  0  0  0  0  0  0  0  0  0  0  0
    7.3938   -3.3616    0.0000 H   0  0  0  0  0  0  0  0  0  0  0  0
    9.4758    2.0604    0.0000 H   0  0  0  0  0  0  0  0  0  0  0  0
   10.8694   -0.3750    0.0000 H   0  0  0  0  0  0  0  0  0  0  0  0
    8.6040    0.5637    0.0000 H   0  0  0  0  0  0  0  0  0  0  0  0
   10.5319   -2.5637    0.0000 H   0  0  0  0  0  0  0  0  0  0  0  0
   13.2354    3.2359    0.0000 H   0  0  0  0  0  0  0  0  0  0  0  0
   12.6178    3.8583    0.0000 H   0  0  0  0  0  0  0  0  0  0  0  0
   11.9954    3.2407    0.0000 H   0  0  0  0  0  0  0  0  0  0  0  0
   13.7797    0.1968    0.0000 H   0  0  0  0  0  0  0  0  0  0  0  0
   14.0099    1.0429    0.0000 H   0  0  0  0  0  0  0  0  0  0  0  0
   13.1638    1.2731    0.0000 H   0  0  0  0  0  0  0  0  0  0  0  0
   10.3313    4.2840    0.0000 H   0  0  0  0  0  0  0  0  0  0  0  0
    9.4835    4.0604    0.0000 H   0  0  0  0  0  0  0  0  0  0  0  0
    9.7072    3.2126    0.0000 H   0  0  0  0  0  0  0  0  0  0  0  0
  1 30  1  0  0  0  0
  2 13  1  0  0  0  0
  2 17  1  0  0  0  0
  3 14  2  0  0  0  0
  4 26  1  0  0  0  0
  4 33  1  0  0  0  0
  5 27  1  0  0  0  0
  5 34  1  0  0  0  0
  6 28  1  0  0  0  0
  6 32  1  0  0  0  0
  7 14  1  0  0  0  0
  7 18  1  0  0  0  0
  7 41  1  0  0  0  0
  8 18  1  0  0  0  0
  8 20  2  0  0  0  0
  9 20  1  0  0  0  0
  9 22  1  0  0  0  0
  9 44  1  0  0  0  0
 10 23  1  0  0  0  0
 10 29  1  0  0  0  0
 10 47  1  0  0  0  0
 11 22  2  0  0  0  0
 11 29  1  0  0  0  0
 12 29  2  0  0  0  0
 12 31  1  0  0  0  0
 13 14  1  0  0  0  0
 13 15  1  0  0  0  0
 13 16  1  0  0  0  0
 15 35  1  0  0  0  0
 15 36  1  0  0  0  0
 15 40  1  0  0  0  0
 16 37  1  0  0  0  0
 16 38  1  0  0  0  0
 16 39  1  0  0  0  0
 17 18  2  0  0  0  0
 17 19  1  0  0  0  0
 19 21  2  0  0  0  0
 19 42  1  0  0  0  0
 20 21  1  0  0  0  0
 21 43  1  0  0  0  0
 22 30  1  0  0  0  0
 23 24  2  0  0  0  0
 23 25  1  0  0  0  0
 24 27  1  0  0  0  0
 24 45  1  0  0  0  0
 25 26  2  0  0  0  0
 25 46  1  0  0  0  0
 26 28  1  0  0  0  0
 27 28  2  0  0  0  0
 30 31  2  0  0  0  0
 31 48  1  0  0  0  0
 32 49  1  0  0  0  0
 32 50  1  0  0  0  0
 32 51  1  0  0  0  0
 33 52  1  0  0  0  0
 33 53  1  0  0  0  0
 33 54  1  0  0  0  0
 34 55  1  0  0  0  0
 34 56  1  0  0  0  0
 34 57  1  0  0  0  0
M  END
>  <PUBCHEM_COMPOUND_CID>
11213558

>  <PUBCHEM_COMPOUND_CANONICALIZED>
1

>  <PUBCHEM_CACTVS_COMPLEXITY>
691

>  <PUBCHEM_CACTVS_HBOND_ACCEPTOR>
11

>  <PUBCHEM_CACTVS_HBOND_DONOR>
3

>  <PUBCHEM_CACTVS_ROTATABLE_BOND>
7

>  <PUBCHEM_CACTVS_SUBSKEYS>
AAADceB7uQAAAAAAAAAAAAAAAAAAAAAAAAA8WLEAAAAAAACx8AAAHwAQAAAADEzBkg4/9pbIFACoADd3dAaCiCkxYqAJ2CF/7JiPL+LE+d+HPCrv1R/a6CewcA8AAEAACgAAQAAAgAAUAACAAAAAAAAAAA==

>  <PUBCHEM_IUPAC_OPENEYE_NAME>
6-[[5-fluoro-2-(3,4,5-trimethoxyanilino)pyrimidin-4-yl]amino]-2,2-dimethyl-4H-pyrido[3,2-b][1,4]oxazin-3-one

>  <PUBCHEM_IUPAC_CAS_NAME>
6-[[5-fluoro-2-(3,4,5-trimethoxyanilino)-4-pyrimidinyl]amino]-2,2-dimethyl-4H-pyrido[3,2-b][1,4]oxazin-3-one

>  <PUBCHEM_IUPAC_NAME>
6-[[5-fluoro-2-(3,4,5-trimethoxyanilino)pyrimidin-4-yl]amino]-2,2-dimethyl-4H-pyrido[3,2-b][1,4]oxazin-3-one

>  <PUBCHEM_IUPAC_SYSTEMATIC_NAME>
6-[[5-fluoranyl-2-[(3,4,5-trimethoxyphenyl)amino]pyrimidin-4-yl]amino]-2,2-dimethyl-4H-pyrido[3,2-b][1,4]oxazin-3-one

>  <PUBCHEM_IUPAC_TRADITIONAL_NAME>
6-[[5-fluoro-2-(3,4,5-trimethoxyanilino)pyrimidin-4-yl]amino]-2,2-dimethyl-4H-pyrido[3,2-b][1,4]oxazin-3-one

>  <PUBCHEM_IUPAC_INCHI>
InChI=1S/C22H23FN6O5/c1-22(2)20(30)28-19-13(34-22)6-7-16(27-19)26-18-12(23)10-24-21(29-18)25-11-8-14(31-3)17(33-5)15(9-11)32-4/h6-10H,1-5H3,(H3,24,25,26,27,28,29,30)

>  <PUBCHEM_IUPAC_INCHIKEY>
NHHQJBCNYHBUSI-UHFFFAOYSA-N

>  <PUBCHEM_XLOGP3_AA>
3.1

>  <PUBCHEM_EXACT_MASS>
470.171396

>  <PUBCHEM_MOLECULAR_FORMULA>
C22H23FN6O5

>  <PUBCHEM_MOLECULAR_WEIGHT>
470.453623

>  <PUBCHEM_OPENEYE_CAN_SMILES>
CC1(C(=O)NC2=C(O1)C=CC(=N2)NC3=NC(=NC=C3F)NC4=CC(=C(C(=C4)OC)OC)OC)C

>  <PUBCHEM_OPENEYE_ISO_SMILES>
CC1(C(=O)NC2=C(O1)C=CC(=N2)NC3=NC(=NC=C3F)NC4=CC(=C(C(=C4)OC)OC)OC)C

>  <PUBCHEM_CACTVS_TPSA>
129

>  <PUBCHEM_MONOISOTOPIC_WEIGHT>
470.171396

>  <PUBCHEM_TOTAL_CHARGE>
0

>  <PUBCHEM_HEAVY_ATOM_COUNT>
34

>  <PUBCHEM_ATOM_DEF_STEREO_COUNT>
0

>  <PUBCHEM_ATOM_UDEF_STEREO_COUNT>
0

>  <PUBCHEM_BOND_DEF_STEREO_COUNT>
0

>  <PUBCHEM_BOND_UDEF_STEREO_COUNT>
0

>  <PUBCHEM_ISOTOPIC_ATOM_COUNT>
0

>  <PUBCHEM_COMPONENT_COUNT>
1

>  <PUBCHEM_CACTVS_TAUTO_COUNT>
56

>  <PUBCHEM_COORDINATE_TYPE>
1
3

>  <PUBCHEM_BONDANNOTATIONS>
11  22  8
11  29  8
12  29  8
12  31  8
17  18  8
17  19  8
19  21  8
20  21  8
22  30  8
23  24  8
23  25  8
24  27  8
25  26  8
26  28  8
27  28  8
30  31  8
8  18  8
8  20  8

$$$$
