
 OpenBabel11121517312D

 56 59  0  0  1  0  0  0  0  0999 V2000
    2.8660   -0.3730    0.0000 O   0  0  0  0  0  0  0  0  0  0  0  0
    7.1962    4.1270    0.0000 N   0  0  0  0  0  0  0  0  0  0  0  0
    8.0622    2.6270    0.0000 N   0  0  0  0  0  0  0  0  0  0  0  0
    9.0084    2.9317    0.0000 N   0  0  0  0  0  0  0  0  0  0  0  0
    7.1962    1.1270    0.0000 N   0  0  0  0  0  0  0  0  0  0  0  0
    5.4641    1.1270    0.0000 N   0  0  0  0  0  0  0  0  0  0  0  0
    5.4641   -2.8730    0.0000 N   0  0  0  0  0  0  0  0  0  0  0  0
    3.7320   -1.8730    0.0000 N   0  0  0  0  0  0  0  0  0  0  0  0
    7.1962   -4.8730    0.0000 N   0  0  0  0  0  0  0  0  0  0  0  0
    9.6297   -0.5788    0.0000 N   0  0  0  0  0  0  0  0  0  0  0  0
    6.3301    4.6270    0.0000 C   0  0  0  0  0  0  0  0  0  0  0  0
    5.8301    5.4930    0.0000 C   0  0  0  0  0  0  0  0  0  0  0  0
    5.3301    4.6270    0.0000 C   0  0  0  0  0  0  0  0  0  0  0  0
    7.1962    3.1270    0.0000 C   0  0  0  0  0  0  0  0  0  0  0  0
    6.3301    2.6270    0.0000 C   0  0  0  0  0  0  0  0  0  0  0  0
    8.0622    1.6270    0.0000 C   0  0  0  0  0  0  0  0  0  0  0  0
    6.3301    1.6270    0.0000 C   0  0  0  0  0  0  0  0  0  0  0  0
    9.0084    1.3223    0.0000 C   0  0  0  0  0  0  0  0  0  0  0  0
    9.5920    2.1270    0.0000 C   0  0  0  0  0  0  0  0  0  0  0  0
    5.4641    0.1270    0.0000 C   0  0  0  0  0  0  0  0  0  0  0  0
    5.4641   -1.8730    0.0000 C   0  0  0  0  0  0  0  0  0  0  0  0
    4.5981   -1.3730    0.0000 C   0  0  0  0  0  0  0  0  0  0  0  0
    4.5981   -0.3730    0.0000 C   0  0  0  0  0  0  0  0  0  0  0  0
    6.3301   -0.3730    0.0000 C   0  0  0  0  0  0  0  0  0  0  0  0
    6.3301   -3.3730    0.0000 C   0  0  0  0  0  0  0  0  0  0  0  0
    6.3301   -1.3730    0.0000 C   0  0  0  0  0  0  0  0  0  0  0  0
    4.5981   -3.3730    0.0000 C   0  0  0  0  0  0  0  0  0  0  0  0
    6.3301   -4.3730    0.0000 C   0  0  0  0  0  0  0  0  0  0  0  0
    9.3191    0.3717    0.0000 C   0  0  0  0  0  0  0  0  0  0  0  0
    2.8660   -1.3730    0.0000 C   0  0  0  0  0  0  0  0  0  0  0  0
    2.0000   -1.8730    0.0000 C   0  0  0  0  0  0  0  0  0  0  0  0
    6.7685    5.0654    0.0000 H   0  0  0  0  0  0  0  0  0  0  0  0
    4.7475    4.8390    0.0000 H   0  0  0  0  0  0  0  0  0  0  0  0
    5.2225    4.0164    0.0000 H   0  0  0  0  0  0  0  0  0  0  0  0
    6.3051    5.8915    0.0000 H   0  0  0  0  0  0  0  0  0  0  0  0
    5.3552    5.8915    0.0000 H   0  0  0  0  0  0  0  0  0  0  0  0
    7.7331    4.4370    0.0000 H   0  0  0  0  0  0  0  0  0  0  0  0
    5.7932    2.9370    0.0000 H   0  0  0  0  0  0  0  0  0  0  0  0
    4.9272    1.4370    0.0000 H   0  0  0  0  0  0  0  0  0  0  0  0
   10.2120    2.1270    0.0000 H   0  0  0  0  0  0  0  0  0  0  0  0
    4.0611   -0.0630    0.0000 H   0  0  0  0  0  0  0  0  0  0  0  0
    6.8671   -0.0630    0.0000 H   0  0  0  0  0  0  0  0  0  0  0  0
    6.9407   -3.4807    0.0000 H   0  0  0  0  0  0  0  0  0  0  0  0
    6.5422   -2.7904    0.0000 H   0  0  0  0  0  0  0  0  0  0  0  0
    6.8671   -1.6830    0.0000 H   0  0  0  0  0  0  0  0  0  0  0  0
    4.2881   -2.8361    0.0000 H   0  0  0  0  0  0  0  0  0  0  0  0
    4.0611   -3.6830    0.0000 H   0  0  0  0  0  0  0  0  0  0  0  0
    4.9081   -3.9100    0.0000 H   0  0  0  0  0  0  0  0  0  0  0  0
    5.7196   -4.2654    0.0000 H   0  0  0  0  0  0  0  0  0  0  0  0
    6.1181   -4.9556    0.0000 H   0  0  0  0  0  0  0  0  0  0  0  0
    3.7320   -2.4930    0.0000 H   0  0  0  0  0  0  0  0  0  0  0  0
    7.1962   -5.4930    0.0000 H   0  0  0  0  0  0  0  0  0  0  0  0
    7.7331   -4.5630    0.0000 H   0  0  0  0  0  0  0  0  0  0  0  0
    1.6900   -1.3361    0.0000 H   0  0  0  0  0  0  0  0  0  0  0  0
    1.4631   -2.1830    0.0000 H   0  0  0  0  0  0  0  0  0  0  0  0
    2.3100   -2.4099    0.0000 H   0  0  0  0  0  0  0  0  0  0  0  0
  1 30  2  0  0  0  0
  2 11  1  0  0  0  0
  2 14  1  0  0  0  0
  2 37  1  0  0  0  0
  3  4  1  0  0  0  0
  3 14  1  0  0  0  0
  3 16  1  0  0  0  0
  4 19  2  0  0  0  0
  5 16  1  0  0  0  0
  5 17  2  0  0  0  0
  6 17  1  0  0  0  0
  6 20  1  0  0  0  0
  6 39  1  0  0  0  0
  7 21  1  0  0  0  0
  7 25  1  0  0  0  0
  7 27  1  0  0  0  0
  8 22  1  0  0  0  0
  8 30  1  0  0  0  0
  8 51  1  0  0  0  0
  9 28  1  0  0  0  0
  9 52  1  0  0  0  0
  9 53  1  0  0  0  0
 10 29  3  0  0  0  0
 11 12  1  0  0  0  0
 11 13  1  0  0  0  0
 11 32  1  0  0  0  0
 12 13  1  0  0  0  0
 12 35  1  0  0  0  0
 12 36  1  0  0  0  0
 13 33  1  0  0  0  0
 13 34  1  0  0  0  0
 14 15  2  0  0  0  0
 15 17  1  0  0  0  0
 15 38  1  0  0  0  0
 16 18  2  0  0  0  0
 18 19  1  0  0  0  0
 18 29  1  0  0  0  0
 19 40  1  0  0  0  0
 20 23  2  0  0  0  0
 20 24  1  0  0  0  0
 21 22  2  0  0  0  0
 21 26  1  0  0  0  0
 22 23  1  0  0  0  0
 23 41  1  0  0  0  0
 24 26  2  0  0  0  0
 24 42  1  0  0  0  0
 25 28  1  0  0  0  0
 25 43  1  0  0  0  0
 25 44  1  0  0  0  0
 26 45  1  0  0  0  0
 27 46  1  0  0  0  0
 27 47  1  0  0  0  0
 27 48  1  0  0  0  0
 28 49  1  0  0  0  0
 28 50  1  0  0  0  0
 30 31  1  0  0  0  0
 31 54  1  0  0  0  0
 31 55  1  0  0  0  0
 31 56  1  0  0  0  0
M  END
>  <PUBCHEM_COMPOUND_CID>
56946894

>  <PUBCHEM_COMPOUND_CANONICALIZED>
1

>  <PUBCHEM_CACTVS_COMPLEXITY>
677

>  <PUBCHEM_CACTVS_HBOND_ACCEPTOR>
8

>  <PUBCHEM_CACTVS_HBOND_DONOR>
4

>  <PUBCHEM_CACTVS_ROTATABLE_BOND>
8

>  <PUBCHEM_CACTVS_SUBSKEYS>
AAADceB74AAAAAAAAAAAAAAAGAAAAWAAAAA8QAAAAAAAAFgB8AAAHgAYAAAADCjBmwQ/8J/IEAC6Bjd3dACyhCshgqAdmKA4dJiI6OLA2dGUpAh4nALIyCcQAAAAAACAAAQAACAAAQAACAAAQAAAAAAAAA==

>  <PUBCHEM_IUPAC_OPENEYE_NAME>
N-[2-[2-aminoethyl(methyl)amino]-5-[[3-cyano-7-(cyclopropylamino)pyrazolo[1,5-a]pyrimidin-5-yl]amino]phenyl]acetamide

>  <PUBCHEM_IUPAC_CAS_NAME>
N-[2-[2-aminoethyl(methyl)amino]-5-[[3-cyano-7-(cyclopropylamino)-5-pyrazolo[1,5-a]pyrimidinyl]amino]phenyl]acetamide

>  <PUBCHEM_IUPAC_NAME>
N-[2-[2-aminoethyl(methyl)amino]-5-[[3-cyano-7-(cyclopropylamino)pyrazolo[1,5-a]pyrimidin-5-yl]amino]phenyl]acetamide

>  <PUBCHEM_IUPAC_SYSTEMATIC_NAME>
N-[2-[2-azanylethyl(methyl)amino]-5-[[3-cyano-7-(cyclopropylamino)pyrazolo[1,5-a]pyrimidin-5-yl]amino]phenyl]ethanamide

>  <PUBCHEM_IUPAC_TRADITIONAL_NAME>
N-[2-[2-aminoethyl(methyl)amino]-5-[[3-cyano-7-(cyclopropylamino)pyrazolo[1,5-a]pyrimidin-5-yl]amino]phenyl]acetamide

>  <PUBCHEM_IUPAC_INCHI>
InChI=1S/C21H25N9O/c1-13(31)25-17-9-16(5-6-18(17)29(2)8-7-22)26-19-10-20(27-15-3-4-15)30-21(28-19)14(11-23)12-24-30/h5-6,9-10,12,15,27H,3-4,7-8,22H2,1-2H3,(H,25,31)(H,26,28)

>  <PUBCHEM_IUPAC_INCHIKEY>
FBMJGDCKBKUMJF-UHFFFAOYSA-N

>  <PUBCHEM_XLOGP3_AA>
1.2

>  <PUBCHEM_EXACT_MASS>
419.218206

>  <PUBCHEM_MOLECULAR_FORMULA>
C21H25N9O

>  <PUBCHEM_MOLECULAR_WEIGHT>
419.4829

>  <PUBCHEM_OPENEYE_CAN_SMILES>
CC(=O)NC1=C(C=CC(=C1)NC2=NC3=C(C=NN3C(=C2)NC4CC4)C#N)N(C)CCN

>  <PUBCHEM_OPENEYE_ISO_SMILES>
CC(=O)NC1=C(C=CC(=C1)NC2=NC3=C(C=NN3C(=C2)NC4CC4)C#N)N(C)CCN

>  <PUBCHEM_CACTVS_TPSA>
136

>  <PUBCHEM_MONOISOTOPIC_WEIGHT>
419.218206

>  <PUBCHEM_TOTAL_CHARGE>
0

>  <PUBCHEM_HEAVY_ATOM_COUNT>
31

>  <PUBCHEM_ATOM_DEF_STEREO_COUNT>
0

>  <PUBCHEM_ATOM_UDEF_STEREO_COUNT>
0

>  <PUBCHEM_BOND_DEF_STEREO_COUNT>
0

>  <PUBCHEM_BOND_UDEF_STEREO_COUNT>
0

>  <PUBCHEM_ISOTOPIC_ATOM_COUNT>
0

>  <PUBCHEM_COMPONENT_COUNT>
1

>  <PUBCHEM_CACTVS_TAUTO_COUNT>
33

>  <PUBCHEM_COORDINATE_TYPE>
1
5
255

>  <PUBCHEM_BONDANNOTATIONS>
14  15  8
15  17  8
16  18  8
18  19  8
20  23  8
20  24  8
21  22  8
21  26  8
22  23  8
24  26  8
3  14  8
3  16  8
3  4  8
4  19  8
5  16  8
5  17  8

$$$$
