
 OpenBabel11121517312D

 72 77  0  0  0  0  0  0  0  0999 V2000
    3.3426   -3.3213    0.0000 Cl  0  0  0  0  0  0  0  0  0  0  0  0
    9.2136   -2.0840    0.0000 O   0  0  0  0  0  0  0  0  0  0  0  0
    9.4312    4.1572    0.0000 N   0  0  0  0  0  0  0  0  0  0  0  0
    8.4993    1.3056    0.0000 N   0  0  0  0  0  0  0  0  0  0  0  0
   10.0526    6.0582    0.0000 N   0  0  0  0  0  0  0  0  0  0  0  0
    7.2566   -2.4965    0.0000 N   0  0  0  0  0  0  0  0  0  0  0  0
    5.9674   -3.6532    0.0000 N   0  0  0  0  0  0  0  0  0  0  0  0
    5.6103   -1.9584    0.0000 N   0  0  0  0  0  0  0  0  0  0  0  0
    4.6783   -6.4194    0.0000 N   0  0  0  0  0  0  0  0  0  0  0  0
    9.1206    3.2066    0.0000 C   0  0  0  0  0  0  0  0  0  0  0  0
    9.7884    2.4623    0.0000 C   0  0  0  0  0  0  0  0  0  0  0  0
    8.1421    3.0004    0.0000 C   0  0  0  0  0  0  0  0  0  0  0  0
    9.4778    1.5118    0.0000 C   0  0  0  0  0  0  0  0  0  0  0  0
    7.8314    2.0499    0.0000 C   0  0  0  0  0  0  0  0  0  0  0  0
    8.7634    4.9015    0.0000 C   0  0  0  0  0  0  0  0  0  0  0  0
   10.4097    4.3634    0.0000 C   0  0  0  0  0  0  0  0  0  0  0  0
    9.0741    5.8520    0.0000 C   0  0  0  0  0  0  0  0  0  0  0  0
   10.7204    5.3139    0.0000 C   0  0  0  0  0  0  0  0  0  0  0  0
    8.1886    0.3551    0.0000 C   0  0  0  0  0  0  0  0  0  0  0  0
   10.3632    7.0087    0.0000 C   0  0  0  0  0  0  0  0  0  0  0  0
    8.8564   -0.3892    0.0000 C   0  0  0  0  0  0  0  0  0  0  0  0
    7.2101    0.1489    0.0000 C   0  0  0  0  0  0  0  0  0  0  0  0
    8.5458   -1.3397    0.0000 C   0  0  0  0  0  0  0  0  0  0  0  0
    6.8994   -0.8016    0.0000 C   0  0  0  0  0  0  0  0  0  0  0  0
    7.5673   -1.5460    0.0000 C   0  0  0  0  0  0  0  0  0  0  0  0
    6.2781   -2.7027    0.0000 C   0  0  0  0  0  0  0  0  0  0  0  0
   10.1921   -1.8778    0.0000 C   0  0  0  0  0  0  0  0  0  0  0  0
    4.9889   -3.8594    0.0000 C   0  0  0  0  0  0  0  0  0  0  0  0
    4.6783   -4.8100    0.0000 C   0  0  0  0  0  0  0  0  0  0  0  0
    3.7320   -5.1147    0.0000 C   0  0  0  0  0  0  0  0  0  0  0  0
    3.7320   -6.1147    0.0000 C   0  0  0  0  0  0  0  0  0  0  0  0
    5.2619   -5.6147    0.0000 C   0  0  0  0  0  0  0  0  0  0  0  0
    4.3211   -3.1151    0.0000 C   0  0  0  0  0  0  0  0  0  0  0  0
    4.6318   -2.1646    0.0000 C   0  0  0  0  0  0  0  0  0  0  0  0
    2.8660   -4.6147    0.0000 C   0  0  0  0  0  0  0  0  0  0  0  0
    2.8660   -6.6147    0.0000 C   0  0  0  0  0  0  0  0  0  0  0  0
    2.0000   -5.1147    0.0000 C   0  0  0  0  0  0  0  0  0  0  0  0
    2.0000   -6.1147    0.0000 C   0  0  0  0  0  0  0  0  0  0  0  0
    8.7065    3.6681    0.0000 H   0  0  0  0  0  0  0  0  0  0  0  0
    8.1215    3.6201    0.0000 H   0  0  0  0  0  0  0  0  0  0  0  0
    7.5283    3.0878    0.0000 H   0  0  0  0  0  0  0  0  0  0  0  0
   10.3353    2.1703    0.0000 H   0  0  0  0  0  0  0  0  0  0  0  0
   10.1710    2.9503    0.0000 H   0  0  0  0  0  0  0  0  0  0  0  0
    7.2845    2.3419    0.0000 H   0  0  0  0  0  0  0  0  0  0  0  0
    7.4489    1.5620    0.0000 H   0  0  0  0  0  0  0  0  0  0  0  0
    9.4983    0.8922    0.0000 H   0  0  0  0  0  0  0  0  0  0  0  0
   10.0916    1.4245    0.0000 H   0  0  0  0  0  0  0  0  0  0  0  0
   10.4303    3.7437    0.0000 H   0  0  0  0  0  0  0  0  0  0  0  0
   11.0236    4.2760    0.0000 H   0  0  0  0  0  0  0  0  0  0  0  0
    8.2165    5.1935    0.0000 H   0  0  0  0  0  0  0  0  0  0  0  0
    8.3808    4.4136    0.0000 H   0  0  0  0  0  0  0  0  0  0  0  0
   11.2673    5.0219    0.0000 H   0  0  0  0  0  0  0  0  0  0  0  0
   11.1030    5.8018    0.0000 H   0  0  0  0  0  0  0  0  0  0  0  0
    9.0535    6.4716    0.0000 H   0  0  0  0  0  0  0  0  0  0  0  0
    8.4602    5.9393    0.0000 H   0  0  0  0  0  0  0  0  0  0  0  0
   10.9526    6.8161    0.0000 H   0  0  0  0  0  0  0  0  0  0  0  0
   10.5558    7.5981    0.0000 H   0  0  0  0  0  0  0  0  0  0  0  0
    9.7739    7.2013    0.0000 H   0  0  0  0  0  0  0  0  0  0  0  0
    9.4631   -0.2614    0.0000 H   0  0  0  0  0  0  0  0  0  0  0  0
    6.7960    0.6103    0.0000 H   0  0  0  0  0  0  0  0  0  0  0  0
    6.2928   -0.9295    0.0000 H   0  0  0  0  0  0  0  0  0  0  0  0
    7.6707   -2.9579    0.0000 H   0  0  0  0  0  0  0  0  0  0  0  0
   10.3200   -2.4845    0.0000 H   0  0  0  0  0  0  0  0  0  0  0  0
   10.7988   -1.7500    0.0000 H   0  0  0  0  0  0  0  0  0  0  0  0
   10.0643   -1.2711    0.0000 H   0  0  0  0  0  0  0  0  0  0  0  0
    5.8819   -5.6147    0.0000 H   0  0  0  0  0  0  0  0  0  0  0  0
    4.8709   -7.0087    0.0000 H   0  0  0  0  0  0  0  0  0  0  0  0
    4.2177   -1.7031    0.0000 H   0  0  0  0  0  0  0  0  0  0  0  0
    2.8660   -3.9947    0.0000 H   0  0  0  0  0  0  0  0  0  0  0  0
    2.8660   -7.2347    0.0000 H   0  0  0  0  0  0  0  0  0  0  0  0
    1.4631   -4.8047    0.0000 H   0  0  0  0  0  0  0  0  0  0  0  0
    1.4631   -6.4247    0.0000 H   0  0  0  0  0  0  0  0  0  0  0  0
  1 33  1  0  0  0  0
  2 23  1  0  0  0  0
  2 27  1  0  0  0  0
  3 10  1  0  0  0  0
  3 15  1  0  0  0  0
  3 16  1  0  0  0  0
  4 13  1  0  0  0  0
  4 14  1  0  0  0  0
  4 19  1  0  0  0  0
  5 17  1  0  0  0  0
  5 18  1  0  0  0  0
  5 20  1  0  0  0  0
  6 25  1  0  0  0  0
  6 26  1  0  0  0  0
  6 62  1  0  0  0  0
  7 26  1  0  0  0  0
  7 28  2  0  0  0  0
  8 26  2  0  0  0  0
  8 34  1  0  0  0  0
  9 31  1  0  0  0  0
  9 32  1  0  0  0  0
  9 67  1  0  0  0  0
 10 11  1  0  0  0  0
 10 12  1  0  0  0  0
 10 39  1  0  0  0  0
 11 13  1  0  0  0  0
 11 42  1  0  0  0  0
 11 43  1  0  0  0  0
 12 14  1  0  0  0  0
 12 40  1  0  0  0  0
 12 41  1  0  0  0  0
 13 46  1  0  0  0  0
 13 47  1  0  0  0  0
 14 44  1  0  0  0  0
 14 45  1  0  0  0  0
 15 17  1  0  0  0  0
 15 50  1  0  0  0  0
 15 51  1  0  0  0  0
 16 18  1  0  0  0  0
 16 48  1  0  0  0  0
 16 49  1  0  0  0  0
 17 54  1  0  0  0  0
 17 55  1  0  0  0  0
 18 52  1  0  0  0  0
 18 53  1  0  0  0  0
 19 21  2  0  0  0  0
 19 22  1  0  0  0  0
 20 56  1  0  0  0  0
 20 57  1  0  0  0  0
 20 58  1  0  0  0  0
 21 23  1  0  0  0  0
 21 59  1  0  0  0  0
 22 24  2  0  0  0  0
 22 60  1  0  0  0  0
 23 25  2  0  0  0  0
 24 25  1  0  0  0  0
 24 61  1  0  0  0  0
 27 63  1  0  0  0  0
 27 64  1  0  0  0  0
 27 65  1  0  0  0  0
 28 29  1  0  0  0  0
 28 33  1  0  0  0  0
 29 30  1  0  0  0  0
 29 32  2  0  0  0  0
 30 31  1  0  0  0  0
 30 35  2  0  0  0  0
 31 36  2  0  0  0  0
 32 66  1  0  0  0  0
 33 34  2  0  0  0  0
 34 68  1  0  0  0  0
 35 37  1  0  0  0  0
 35 69  1  0  0  0  0
 36 38  1  0  0  0  0
 36 70  1  0  0  0  0
 37 38  2  0  0  0  0
 37 71  1  0  0  0  0
 38 72  1  0  0  0  0
M  END
>  <PUBCHEM_COMPOUND_CID>
56655374

>  <PUBCHEM_COMPOUND_CANONICALIZED>
1

>  <PUBCHEM_CACTVS_COMPLEXITY>
746

>  <PUBCHEM_CACTVS_HBOND_ACCEPTOR>
7

>  <PUBCHEM_CACTVS_HBOND_DONOR>
2

>  <PUBCHEM_CACTVS_ROTATABLE_BOND>
6

>  <PUBCHEM_CACTVS_SUBSKEYS>
AAADcfB7oAAEAAAAAAAAAAAAAAAAAWAAAAA8eLECAAAAAFgB/AAAHgIQAAAADC7BniY/1vfJlACgAzRnZACCiCkxJ6AJ2aA/bpiObuLF+dvVNChu0BvY6CeQ0MMOgACAAgACEAAAAQAEAAQgAAAAAAAAAA==

>  <PUBCHEM_IUPAC_OPENEYE_NAME>
5-chloro-4-(1H-indol-3-yl)-N-[2-methoxy-4-[4-(4-methylpiperazin-1-yl)-1-piperidyl]phenyl]pyrimidin-2-amine

>  <PUBCHEM_IUPAC_CAS_NAME>
5-chloro-4-(1H-indol-3-yl)-N-[2-methoxy-4-[4-(4-methyl-1-piperazinyl)-1-piperidinyl]phenyl]-2-pyrimidinamine

>  <PUBCHEM_IUPAC_NAME>
5-chloro-4-(1H-indol-3-yl)-N-[2-methoxy-4-[4-(4-methylpiperazin-1-yl)piperidin-1-yl]phenyl]pyrimidin-2-amine

>  <PUBCHEM_IUPAC_SYSTEMATIC_NAME>
5-chloranyl-4-(1H-indol-3-yl)-N-[2-methoxy-4-[4-(4-methylpiperazin-1-yl)piperidin-1-yl]phenyl]pyrimidin-2-amine

>  <PUBCHEM_IUPAC_TRADITIONAL_NAME>
[5-chloro-4-(1H-indol-3-yl)pyrimidin-2-yl]-[2-methoxy-4-[4-(4-methylpiperazino)piperidino]phenyl]amine

>  <PUBCHEM_IUPAC_INCHI>
InChI=1S/C29H34ClN7O/c1-35-13-15-37(16-14-35)20-9-11-36(12-10-20)21-7-8-26(27(17-21)38-2)33-29-32-19-24(30)28(34-29)23-18-31-25-6-4-3-5-22(23)25/h3-8,17-20,31H,9-16H2,1-2H3,(H,32,33,34)

>  <PUBCHEM_IUPAC_INCHIKEY>
HRYNCLKDKCPYBF-UHFFFAOYSA-N

>  <PUBCHEM_XLOGP3_AA>
5

>  <PUBCHEM_EXACT_MASS>
531.251336

>  <PUBCHEM_MOLECULAR_FORMULA>
C29H34ClN7O

>  <PUBCHEM_MOLECULAR_WEIGHT>
532.07956

>  <PUBCHEM_OPENEYE_CAN_SMILES>
CN1CCN(CC1)C2CCN(CC2)C3=CC(=C(C=C3)NC4=NC=C(C(=N4)C5=CNC6=CC=CC=C65)Cl)OC

>  <PUBCHEM_OPENEYE_ISO_SMILES>
CN1CCN(CC1)C2CCN(CC2)C3=CC(=C(C=C3)NC4=NC=C(C(=N4)C5=CNC6=CC=CC=C65)Cl)OC

>  <PUBCHEM_CACTVS_TPSA>
72.6

>  <PUBCHEM_MONOISOTOPIC_WEIGHT>
531.251336

>  <PUBCHEM_TOTAL_CHARGE>
0

>  <PUBCHEM_HEAVY_ATOM_COUNT>
38

>  <PUBCHEM_ATOM_DEF_STEREO_COUNT>
0

>  <PUBCHEM_ATOM_UDEF_STEREO_COUNT>
0

>  <PUBCHEM_BOND_DEF_STEREO_COUNT>
0

>  <PUBCHEM_BOND_UDEF_STEREO_COUNT>
0

>  <PUBCHEM_ISOTOPIC_ATOM_COUNT>
0

>  <PUBCHEM_COMPONENT_COUNT>
1

>  <PUBCHEM_CACTVS_TAUTO_COUNT>
9

>  <PUBCHEM_COORDINATE_TYPE>
1
5
255

>  <PUBCHEM_BONDANNOTATIONS>
19  21  8
19  22  8
21  23  8
22  24  8
23  25  8
24  25  8
28  33  8
29  30  8
29  32  8
30  31  8
30  35  8
31  36  8
33  34  8
35  37  8
36  38  8
37  38  8
7  26  8
7  28  8
8  26  8
8  34  8
9  31  8
9  32  8

$$$$
