
 OpenBabel11121517312D

 48 50  0  0  0  0  0  0  0  0999 V2000
    2.0000    0.9239    0.0000 F   0  0  0  0  0  0  0  0  0  0  0  0
    2.3660   -0.4421    0.0000 F   0  0  0  0  0  0  0  0  0  0  0  0
    3.3660    1.2900    0.0000 F   0  0  0  0  0  0  0  0  0  0  0  0
    3.7320    2.9239    0.0000 O   0  0  0  0  0  0  0  0  0  0  0  0
    4.5981    1.4239    0.0000 N   0  0  0  0  0  0  0  0  0  0  0  0
    6.3301   -1.5761    0.0000 N   0  0  0  0  0  0  0  0  0  0  0  0
    6.8301   -4.1149    0.0000 N   0  0  0  0  0  0  0  0  0  0  0  0
    4.5981   -1.5761    0.0000 N   0  0  0  0  0  0  0  0  0  0  0  0
    5.8301   -4.1149    0.0000 N   0  0  0  0  0  0  0  0  0  0  0  0
    4.5981    4.4239    0.0000 N   0  0  0  0  0  0  0  0  0  0  0  0
    4.5981    0.4239    0.0000 C   0  0  0  0  0  0  0  0  0  0  0  0
    6.3301   -2.5761    0.0000 C   0  0  0  0  0  0  0  0  0  0  0  0
    3.7320   -0.0761    0.0000 C   0  0  0  0  0  0  0  0  0  0  0  0
    5.4641   -1.0761    0.0000 C   0  0  0  0  0  0  0  0  0  0  0  0
    5.4641   -0.0761    0.0000 C   0  0  0  0  0  0  0  0  0  0  0  0
    5.4641    1.9239    0.0000 C   0  0  0  0  0  0  0  0  0  0  0  0
    5.5211   -3.1639    0.0000 C   0  0  0  0  0  0  0  0  0  0  0  0
    7.1391   -3.1639    0.0000 C   0  0  0  0  0  0  0  0  0  0  0  0
    5.4641    2.9239    0.0000 C   0  0  0  0  0  0  0  0  0  0  0  0
    3.7320   -1.0761    0.0000 C   0  0  0  0  0  0  0  0  0  0  0  0
    2.8660    0.4239    0.0000 C   0  0  0  0  0  0  0  0  0  0  0  0
    6.3301    1.4239    0.0000 C   0  0  0  0  0  0  0  0  0  0  0  0
    4.5700   -2.8548    0.0000 C   0  0  0  0  0  0  0  0  0  0  0  0
    6.3301    3.4239    0.0000 C   0  0  0  0  0  0  0  0  0  0  0  0
    7.1962    1.9239    0.0000 C   0  0  0  0  0  0  0  0  0  0  0  0
    7.4179   -4.9239    0.0000 C   0  0  0  0  0  0  0  0  0  0  0  0
    4.5981    3.4239    0.0000 C   0  0  0  0  0  0  0  0  0  0  0  0
    7.1962    2.9239    0.0000 C   0  0  0  0  0  0  0  0  0  0  0  0
    5.4641    4.9239    0.0000 C   0  0  0  0  0  0  0  0  0  0  0  0
    6.0010    0.2339    0.0000 H   0  0  0  0  0  0  0  0  0  0  0  0
    4.0611    1.7339    0.0000 H   0  0  0  0  0  0  0  0  0  0  0  0
    6.8671   -1.2661    0.0000 H   0  0  0  0  0  0  0  0  0  0  0  0
    7.7288   -2.9723    0.0000 H   0  0  0  0  0  0  0  0  0  0  0  0
    3.1951   -1.3861    0.0000 H   0  0  0  0  0  0  0  0  0  0  0  0
    6.3301    0.8039    0.0000 H   0  0  0  0  0  0  0  0  0  0  0  0
    4.7616   -2.2652    0.0000 H   0  0  0  0  0  0  0  0  0  0  0  0
    3.9804   -2.6632    0.0000 H   0  0  0  0  0  0  0  0  0  0  0  0
    4.3785   -3.4445    0.0000 H   0  0  0  0  0  0  0  0  0  0  0  0
    6.3301    4.0439    0.0000 H   0  0  0  0  0  0  0  0  0  0  0  0
    7.7331    1.6139    0.0000 H   0  0  0  0  0  0  0  0  0  0  0  0
    6.9163   -5.2884    0.0000 H   0  0  0  0  0  0  0  0  0  0  0  0
    7.7823   -5.4255    0.0000 H   0  0  0  0  0  0  0  0  0  0  0  0
    7.9195   -4.5595    0.0000 H   0  0  0  0  0  0  0  0  0  0  0  0
    7.7331    3.2339    0.0000 H   0  0  0  0  0  0  0  0  0  0  0  0
    4.0611    4.7339    0.0000 H   0  0  0  0  0  0  0  0  0  0  0  0
    5.7741    4.3870    0.0000 H   0  0  0  0  0  0  0  0  0  0  0  0
    6.0010    5.2339    0.0000 H   0  0  0  0  0  0  0  0  0  0  0  0
    5.1541    5.4609    0.0000 H   0  0  0  0  0  0  0  0  0  0  0  0
  1 21  1  0  0  0  0
  2 21  1  0  0  0  0
  3 21  1  0  0  0  0
  4 27  2  0  0  0  0
  5 11  1  0  0  0  0
  5 16  1  0  0  0  0
  5 31  1  0  0  0  0
  6 12  1  0  0  0  0
  6 14  1  0  0  0  0
  6 32  1  0  0  0  0
  7  9  1  0  0  0  0
  7 18  1  0  0  0  0
  7 26  1  0  0  0  0
  8 14  2  0  0  0  0
  8 20  1  0  0  0  0
  9 17  2  0  0  0  0
 10 27  1  0  0  0  0
 10 29  1  0  0  0  0
 10 45  1  0  0  0  0
 11 13  1  0  0  0  0
 11 15  2  0  0  0  0
 12 17  1  0  0  0  0
 12 18  2  0  0  0  0
 13 20  2  0  0  0  0
 13 21  1  0  0  0  0
 14 15  1  0  0  0  0
 15 30  1  0  0  0  0
 16 19  1  0  0  0  0
 16 22  2  0  0  0  0
 17 23  1  0  0  0  0
 18 33  1  0  0  0  0
 19 24  2  0  0  0  0
 19 27  1  0  0  0  0
 20 34  1  0  0  0  0
 22 25  1  0  0  0  0
 22 35  1  0  0  0  0
 23 36  1  0  0  0  0
 23 37  1  0  0  0  0
 23 38  1  0  0  0  0
 24 28  1  0  0  0  0
 24 39  1  0  0  0  0
 25 28  2  0  0  0  0
 25 40  1  0  0  0  0
 26 41  1  0  0  0  0
 26 42  1  0  0  0  0
 26 43  1  0  0  0  0
 28 44  1  0  0  0  0
 29 46  1  0  0  0  0
 29 47  1  0  0  0  0
 29 48  1  0  0  0  0
M  END
>  <PUBCHEM_COMPOUND_CID>
44609510

>  <PUBCHEM_COMPOUND_CANONICALIZED>
1

>  <PUBCHEM_CACTVS_COMPLEXITY>
563

>  <PUBCHEM_CACTVS_HBOND_ACCEPTOR>
8

>  <PUBCHEM_CACTVS_HBOND_DONOR>
3

>  <PUBCHEM_CACTVS_ROTATABLE_BOND>
5

>  <PUBCHEM_CACTVS_SUBSKEYS>
AAADceB7oYAAAAAAAAAAAAAAAAAAAWAAAAA8QAAAAAAAAAAB8AAAHwAYAAAADAjBnhQ/8JLIEACqAzd3dACShCk1kiAZ2KE4dNiIYPrA3dGUpYhomgLIyecYiACOAAAAAAACAAAAAAAAAAQAAAAAAAAAAA==

>  <PUBCHEM_IUPAC_OPENEYE_NAME>
2-[[2-[(1,3-dimethylpyrazol-4-yl)amino]-5-(trifluoromethyl)-4-pyridyl]amino]-N-methyl-benzamide

>  <PUBCHEM_IUPAC_CAS_NAME>
2-[[2-[(1,3-dimethyl-4-pyrazolyl)amino]-5-(trifluoromethyl)-4-pyridinyl]amino]-N-methylbenzamide

>  <PUBCHEM_IUPAC_NAME>
2-[[2-[(1,3-dimethylpyrazol-4-yl)amino]-5-(trifluoromethyl)pyridin-4-yl]amino]-N-methylbenzamide

>  <PUBCHEM_IUPAC_SYSTEMATIC_NAME>
2-[[2-[(1,3-dimethylpyrazol-4-yl)amino]-5-(trifluoromethyl)pyridin-4-yl]amino]-N-methyl-benzamide

>  <PUBCHEM_IUPAC_TRADITIONAL_NAME>
2-[[2-[(1,3-dimethylpyrazol-4-yl)amino]-5-(trifluoromethyl)-4-pyridyl]amino]-N-methyl-benzamide

>  <PUBCHEM_IUPAC_INCHI>
InChI=1S/C19H19F3N6O/c1-11-16(10-28(3)27-11)26-17-8-15(13(9-24-17)19(20,21)22)25-14-7-5-4-6-12(14)18(29)23-2/h4-10H,1-3H3,(H,23,29)(H2,24,25,26)

>  <PUBCHEM_IUPAC_INCHIKEY>
XXQNJSPSOWJIOZ-UHFFFAOYSA-N

>  <PUBCHEM_XLOGP3_AA>
3.7

>  <PUBCHEM_EXACT_MASS>
404.157244

>  <PUBCHEM_MOLECULAR_FORMULA>
C19H19F3N6O

>  <PUBCHEM_MOLECULAR_WEIGHT>
404.38897

>  <PUBCHEM_OPENEYE_CAN_SMILES>
CC1=NN(C=C1NC2=NC=C(C(=C2)NC3=CC=CC=C3C(=O)NC)C(F)(F)F)C

>  <PUBCHEM_OPENEYE_ISO_SMILES>
CC1=NN(C=C1NC2=NC=C(C(=C2)NC3=CC=CC=C3C(=O)NC)C(F)(F)F)C

>  <PUBCHEM_CACTVS_TPSA>
83.9

>  <PUBCHEM_MONOISOTOPIC_WEIGHT>
404.157244

>  <PUBCHEM_TOTAL_CHARGE>
0

>  <PUBCHEM_HEAVY_ATOM_COUNT>
29

>  <PUBCHEM_ATOM_DEF_STEREO_COUNT>
0

>  <PUBCHEM_ATOM_UDEF_STEREO_COUNT>
0

>  <PUBCHEM_BOND_DEF_STEREO_COUNT>
0

>  <PUBCHEM_BOND_UDEF_STEREO_COUNT>
0

>  <PUBCHEM_ISOTOPIC_ATOM_COUNT>
0

>  <PUBCHEM_COMPONENT_COUNT>
1

>  <PUBCHEM_CACTVS_TAUTO_COUNT>
38

>  <PUBCHEM_COORDINATE_TYPE>
1
5
255

>  <PUBCHEM_BONDANNOTATIONS>
11  13  8
11  15  8
12  17  8
12  18  8
13  20  8
14  15  8
16  19  8
16  22  8
19  24  8
22  25  8
24  28  8
25  28  8
7  18  8
7  9  8
8  14  8
8  20  8
9  17  8

$$$$
