
 OpenBabel11121517312D

  9  6  0  0  0  0  0  0  0  0999 V2000
    3.3060    0.0000    0.0000 Pt  0  2  0  0  0  0  0  0  0  0  0  0
    2.5989    0.7071    0.0000 Cl  0  0  0  0  0  0  0  0  0  0  0  0
    4.0131   -0.7071    0.0000 Cl  0  0  0  0  0  0  0  0  0  0  0  0
    4.0131    0.7071    0.0000 N   0  5  0  0  0  0  0  0  0  0  0  0
    2.5989   -0.7071    0.0000 N   0  5  0  0  0  0  0  0  0  0  0  0
    4.6120    0.5466    0.0000 H   0  0  0  0  0  0  0  0  0  0  0  0
    3.8526    1.3060    0.0000 H   0  0  0  0  0  0  0  0  0  0  0  0
    2.0000   -0.5466    0.0000 H   0  0  0  0  0  0  0  0  0  0  0  0
    2.7593   -1.3060    0.0000 H   0  0  0  0  0  0  0  0  0  0  0  0
  1  2  1  0  0  0  0
  1  3  1  0  0  0  0
  4  6  1  0  0  0  0
  4  7  1  0  0  0  0
  5  8  1  0  0  0  0
  5  9  1  0  0  0  0
M  CHG  3   1   2   4  -1   5  -1
M  END
>  <PUBCHEM_COMPOUND_CID>
2767

>  <PUBCHEM_COMPOUND_CANONICALIZED>
1

>  <PUBCHEM_CACTVS_COMPLEXITY>
7.6

>  <PUBCHEM_CACTVS_HBOND_ACCEPTOR>
2

>  <PUBCHEM_CACTVS_HBOND_DONOR>
2

>  <PUBCHEM_CACTVS_ROTATABLE_BOND>
0

>  <PUBCHEM_CACTVS_SUBSKEYS>
AAADcYADAAAGAAAAAAAABAAAAAAAAAAAAAAAAAAAAAAAAAAAAAAAAAAQAAAAAAAAAAAAAAAAAAAAAAAAAAAAAAAAAAAAAAAAAAAAAAAAAAAAAAAAAAAAAAAAAAAAAAAAAAAAAAAAAAAAAAAAAAAAAAAAAA==

>  <PUBCHEM_IUPAC_OPENEYE_NAME>
azanide;dichloroplatinum(2+)

>  <PUBCHEM_IUPAC_CAS_NAME>
azanide;dichloroplatinum(2+)

>  <PUBCHEM_IUPAC_NAME>
azanide;dichloroplatinum(2+)

>  <PUBCHEM_IUPAC_SYSTEMATIC_NAME>
azanide;bis(chloranyl)platinum(2+)

>  <PUBCHEM_IUPAC_TRADITIONAL_NAME>
azanide;dichloroplatinum(2+)

>  <PUBCHEM_IUPAC_INCHI>
InChI=1S/2ClH.2H2N.Pt/h2*1H;2*1H2;/q;;2*-1;+4/p-2

>  <PUBCHEM_IUPAC_INCHIKEY>
DQLATGHUWYMOKM-UHFFFAOYSA-L

>  <PUBCHEM_EXACT_MASS>
296.939945

>  <PUBCHEM_MOLECULAR_FORMULA>
Cl2H4N2Pt

>  <PUBCHEM_MOLECULAR_WEIGHT>
298.03516

>  <PUBCHEM_OPENEYE_CAN_SMILES>
[NH2-].[NH2-].Cl[Pt+2]Cl

>  <PUBCHEM_OPENEYE_ISO_SMILES>
[NH2-].[NH2-].Cl[Pt+2]Cl

>  <PUBCHEM_CACTVS_TPSA>
2

>  <PUBCHEM_MONOISOTOPIC_WEIGHT>
296.939945

>  <PUBCHEM_TOTAL_CHARGE>
0

>  <PUBCHEM_HEAVY_ATOM_COUNT>
5

>  <PUBCHEM_ATOM_DEF_STEREO_COUNT>
0

>  <PUBCHEM_ATOM_UDEF_STEREO_COUNT>
0

>  <PUBCHEM_BOND_DEF_STEREO_COUNT>
0

>  <PUBCHEM_BOND_UDEF_STEREO_COUNT>
0

>  <PUBCHEM_ISOTOPIC_ATOM_COUNT>
0

>  <PUBCHEM_COMPONENT_COUNT>
3

>  <PUBCHEM_CACTVS_TAUTO_COUNT>
1

>  <PUBCHEM_NONSTANDARDBOND>
1  4  6
1  5  6

>  <PUBCHEM_COORDINATE_TYPE>
1
5
255

$$$$
