
 OpenBabel11121517312D

 49 51  0  0  0  0  0  0  0  0999 V2000
    2.0000    0.4239    0.0000 F   0  0  0  0  0  0  0  0  0  0  0  0
    2.3660   -0.9421    0.0000 F   0  0  0  0  0  0  0  0  0  0  0  0
    3.3660    0.7900    0.0000 F   0  0  0  0  0  0  0  0  0  0  0  0
    8.0622    2.9239    0.0000 F   0  0  0  0  0  0  0  0  0  0  0  0
    3.7320    2.4239    0.0000 O   0  0  0  0  0  0  0  0  0  0  0  0
    5.4641    4.4239    0.0000 O   0  0  0  0  0  0  0  0  0  0  0  0
    4.5981    0.9239    0.0000 N   0  0  0  0  0  0  0  0  0  0  0  0
    6.3301   -2.0761    0.0000 N   0  0  0  0  0  0  0  0  0  0  0  0
    6.8301   -4.6149    0.0000 N   0  0  0  0  0  0  0  0  0  0  0  0
    4.5981   -2.0761    0.0000 N   0  0  0  0  0  0  0  0  0  0  0  0
    5.8301   -4.6149    0.0000 N   0  0  0  0  0  0  0  0  0  0  0  0
    4.5981    3.9239    0.0000 N   0  0  0  0  0  0  0  0  0  0  0  0
    4.5981   -0.0761    0.0000 C   0  0  0  0  0  0  0  0  0  0  0  0
    3.7320   -0.5761    0.0000 C   0  0  0  0  0  0  0  0  0  0  0  0
    6.3301   -3.0761    0.0000 C   0  0  0  0  0  0  0  0  0  0  0  0
    5.4641   -1.5761    0.0000 C   0  0  0  0  0  0  0  0  0  0  0  0
    5.4641   -0.5761    0.0000 C   0  0  0  0  0  0  0  0  0  0  0  0
    5.4641    1.4239    0.0000 C   0  0  0  0  0  0  0  0  0  0  0  0
    5.5211   -3.6639    0.0000 C   0  0  0  0  0  0  0  0  0  0  0  0
    7.1391   -3.6639    0.0000 C   0  0  0  0  0  0  0  0  0  0  0  0
    5.4641    2.4239    0.0000 C   0  0  0  0  0  0  0  0  0  0  0  0
    3.7320   -1.5761    0.0000 C   0  0  0  0  0  0  0  0  0  0  0  0
    2.8660   -0.0761    0.0000 C   0  0  0  0  0  0  0  0  0  0  0  0
    6.3301    0.9239    0.0000 C   0  0  0  0  0  0  0  0  0  0  0  0
    4.5700   -3.3548    0.0000 C   0  0  0  0  0  0  0  0  0  0  0  0
    6.3301    2.9239    0.0000 C   0  0  0  0  0  0  0  0  0  0  0  0
    7.1962    1.4239    0.0000 C   0  0  0  0  0  0  0  0  0  0  0  0
    7.4179   -5.4239    0.0000 C   0  0  0  0  0  0  0  0  0  0  0  0
    7.1962    2.4239    0.0000 C   0  0  0  0  0  0  0  0  0  0  0  0
    4.5981    2.9239    0.0000 C   0  0  0  0  0  0  0  0  0  0  0  0
    5.4641    5.4239    0.0000 C   0  0  0  0  0  0  0  0  0  0  0  0
    6.0010   -0.2661    0.0000 H   0  0  0  0  0  0  0  0  0  0  0  0
    4.0611    1.2339    0.0000 H   0  0  0  0  0  0  0  0  0  0  0  0
    6.8671   -1.7661    0.0000 H   0  0  0  0  0  0  0  0  0  0  0  0
    7.7288   -3.4723    0.0000 H   0  0  0  0  0  0  0  0  0  0  0  0
    3.1951   -1.8861    0.0000 H   0  0  0  0  0  0  0  0  0  0  0  0
    6.3301    0.3039    0.0000 H   0  0  0  0  0  0  0  0  0  0  0  0
    4.7616   -2.7652    0.0000 H   0  0  0  0  0  0  0  0  0  0  0  0
    3.9804   -3.1632    0.0000 H   0  0  0  0  0  0  0  0  0  0  0  0
    4.3785   -3.9445    0.0000 H   0  0  0  0  0  0  0  0  0  0  0  0
    6.3301    3.5439    0.0000 H   0  0  0  0  0  0  0  0  0  0  0  0
    7.7331    1.1139    0.0000 H   0  0  0  0  0  0  0  0  0  0  0  0
    6.9163   -5.7884    0.0000 H   0  0  0  0  0  0  0  0  0  0  0  0
    7.7823   -5.9255    0.0000 H   0  0  0  0  0  0  0  0  0  0  0  0
    7.9195   -5.0595    0.0000 H   0  0  0  0  0  0  0  0  0  0  0  0
    4.0611    4.2339    0.0000 H   0  0  0  0  0  0  0  0  0  0  0  0
    6.0841    5.4239    0.0000 H   0  0  0  0  0  0  0  0  0  0  0  0
    5.4641    6.0439    0.0000 H   0  0  0  0  0  0  0  0  0  0  0  0
    4.8441    5.4239    0.0000 H   0  0  0  0  0  0  0  0  0  0  0  0
  1 23  1  0  0  0  0
  2 23  1  0  0  0  0
  3 23  1  0  0  0  0
  4 29  1  0  0  0  0
  5 30  2  0  0  0  0
  6 12  1  0  0  0  0
  6 31  1  0  0  0  0
  7 13  1  0  0  0  0
  7 18  1  0  0  0  0
  7 33  1  0  0  0  0
  8 15  1  0  0  0  0
  8 16  1  0  0  0  0
  8 34  1  0  0  0  0
  9 11  1  0  0  0  0
  9 20  1  0  0  0  0
  9 28  1  0  0  0  0
 10 16  2  0  0  0  0
 10 22  1  0  0  0  0
 11 19  2  0  0  0  0
 12 30  1  0  0  0  0
 12 46  1  0  0  0  0
 13 14  1  0  0  0  0
 13 17  2  0  0  0  0
 14 22  2  0  0  0  0
 14 23  1  0  0  0  0
 15 19  1  0  0  0  0
 15 20  2  0  0  0  0
 16 17  1  0  0  0  0
 17 32  1  0  0  0  0
 18 21  2  0  0  0  0
 18 24  1  0  0  0  0
 19 25  1  0  0  0  0
 20 35  1  0  0  0  0
 21 26  1  0  0  0  0
 21 30  1  0  0  0  0
 22 36  1  0  0  0  0
 24 27  2  0  0  0  0
 24 37  1  0  0  0  0
 25 38  1  0  0  0  0
 25 39  1  0  0  0  0
 25 40  1  0  0  0  0
 26 29  2  0  0  0  0
 26 41  1  0  0  0  0
 27 29  1  0  0  0  0
 27 42  1  0  0  0  0
 28 43  1  0  0  0  0
 28 44  1  0  0  0  0
 28 45  1  0  0  0  0
 31 47  1  0  0  0  0
 31 48  1  0  0  0  0
 31 49  1  0  0  0  0
M  END
>  <PUBCHEM_COMPOUND_CID>
56951429

>  <PUBCHEM_COMPOUND_CANONICALIZED>
1

>  <PUBCHEM_CACTVS_COMPLEXITY>
612

>  <PUBCHEM_CACTVS_HBOND_ACCEPTOR>
10

>  <PUBCHEM_CACTVS_HBOND_DONOR>
3

>  <PUBCHEM_CACTVS_ROTATABLE_BOND>
6

>  <PUBCHEM_CACTVS_SUBSKEYS>
AAADceB7scAAAAAAAAAAAAAAAAAAAWAAAAA8QAAAAAAAAAAB8AAAHwAcAAAADAjBnh4/8JLYEACqAzd3dACShCk1kiA52CE4dNiIYPrA3dGUpYhomALIyecYiACOAAAAAAACAAAAAAAAAAQAAAAAAAAAAA==

>  <PUBCHEM_IUPAC_OPENEYE_NAME>
2-[[2-[(1,3-dimethylpyrazol-4-yl)amino]-5-(trifluoromethyl)-4-pyridyl]amino]-5-fluoro-N-methoxy-benzamide

>  <PUBCHEM_IUPAC_CAS_NAME>
2-[[2-[(1,3-dimethyl-4-pyrazolyl)amino]-5-(trifluoromethyl)-4-pyridinyl]amino]-5-fluoro-N-methoxybenzamide

>  <PUBCHEM_IUPAC_NAME>
2-[[2-[(1,3-dimethylpyrazol-4-yl)amino]-5-(trifluoromethyl)pyridin-4-yl]amino]-5-fluoro-N-methoxybenzamide

>  <PUBCHEM_IUPAC_SYSTEMATIC_NAME>
2-[[2-[(1,3-dimethylpyrazol-4-yl)amino]-5-(trifluoromethyl)pyridin-4-yl]amino]-5-fluoranyl-N-methoxy-benzamide

>  <PUBCHEM_IUPAC_TRADITIONAL_NAME>
2-[[2-[(1,3-dimethylpyrazol-4-yl)amino]-5-(trifluoromethyl)-4-pyridyl]amino]-5-fluoro-N-methoxy-benzamide

>  <PUBCHEM_IUPAC_INCHI>
InChI=1S/C19H18F4N6O2/c1-10-16(9-29(2)27-10)26-17-7-15(13(8-24-17)19(21,22)23)25-14-5-4-11(20)6-12(14)18(30)28-31-3/h4-9H,1-3H3,(H,28,30)(H2,24,25,26)

>  <PUBCHEM_IUPAC_INCHIKEY>
MWMZPQUFFMXATJ-UHFFFAOYSA-N

>  <PUBCHEM_XLOGP3_AA>
3.8

>  <PUBCHEM_EXACT_MASS>
438.142737

>  <PUBCHEM_MOLECULAR_FORMULA>
C19H18F4N6O2

>  <PUBCHEM_MOLECULAR_WEIGHT>
438.378833

>  <PUBCHEM_OPENEYE_CAN_SMILES>
CC1=NN(C=C1NC2=NC=C(C(=C2)NC3=C(C=C(C=C3)F)C(=O)NOC)C(F)(F)F)C

>  <PUBCHEM_OPENEYE_ISO_SMILES>
CC1=NN(C=C1NC2=NC=C(C(=C2)NC3=C(C=C(C=C3)F)C(=O)NOC)C(F)(F)F)C

>  <PUBCHEM_CACTVS_TPSA>
93.1

>  <PUBCHEM_MONOISOTOPIC_WEIGHT>
438.142737

>  <PUBCHEM_TOTAL_CHARGE>
0

>  <PUBCHEM_HEAVY_ATOM_COUNT>
31

>  <PUBCHEM_ATOM_DEF_STEREO_COUNT>
0

>  <PUBCHEM_ATOM_UDEF_STEREO_COUNT>
0

>  <PUBCHEM_BOND_DEF_STEREO_COUNT>
0

>  <PUBCHEM_BOND_UDEF_STEREO_COUNT>
0

>  <PUBCHEM_ISOTOPIC_ATOM_COUNT>
0

>  <PUBCHEM_COMPONENT_COUNT>
1

>  <PUBCHEM_CACTVS_TAUTO_COUNT>
38

>  <PUBCHEM_COORDINATE_TYPE>
1
5
255

>  <PUBCHEM_BONDANNOTATIONS>
10  16  8
10  22  8
11  19  8
13  14  8
13  17  8
14  22  8
15  19  8
15  20  8
16  17  8
18  21  8
18  24  8
21  26  8
24  27  8
26  29  8
27  29  8
9  11  8
9  20  8

$$$$
