
 OpenBabel11121517312D

 55 58  0  0  1  0  0  0  0  0999 V2000
    2.0000    1.9956    0.0000 Cl  0  0  0  0  0  0  0  0  0  0  0  0
    7.6736    2.1143    0.0000 O   0  0  0  0  0  0  0  0  0  0  0  0
    6.5000    4.5936    0.0000 O   0  0  0  0  0  0  0  0  0  0  0  0
    8.0000   -1.7365    0.0000 N   0  0  0  0  0  0  0  0  0  0  0  0
    8.7660    0.9063    0.0000 N   0  0  0  0  0  0  0  0  0  0  0  0
    6.5000    1.1295    0.0000 N   0  0  0  0  0  0  0  0  0  0  0  0
    7.1340   -3.2365    0.0000 N   0  0  0  0  0  0  0  0  0  0  0  0
    9.8122   -4.5412    0.0000 N   0  0  0  0  0  0  0  0  0  0  0  0
    8.0000   -4.7365    0.0000 N   0  0  0  0  0  0  0  0  0  0  0  0
    8.0000    0.2635    0.0000 C   0  0  0  0  0  0  0  0  0  0  0  0
    8.8660   -0.2365    0.0000 C   0  0  0  0  0  0  0  0  0  0  0  0
    7.1340   -0.2365    0.0000 C   0  0  0  0  0  0  0  0  0  0  0  0
    7.1340   -1.2365    0.0000 C   0  0  0  0  0  0  0  0  0  0  0  0
    8.8660   -1.2365    0.0000 C   0  0  0  0  0  0  0  0  0  0  0  0
    7.5000    1.1295    0.0000 C   0  0  0  0  0  0  0  0  0  0  0  0
    8.0000   -2.7365    0.0000 C   0  0  0  0  0  0  0  0  0  0  0  0
    6.0000    1.9956    0.0000 C   0  0  1  0  0  0  0  0  0  0  0  0
    8.8660   -3.2365    0.0000 C   0  0  0  0  0  0  0  0  0  0  0  0
    6.5000    2.8616    0.0000 C   0  0  0  0  0  0  0  0  0  0  0  0
    5.0000    1.9956    0.0000 C   0  0  0  0  0  0  0  0  0  0  0  0
    8.8660   -4.2365    0.0000 C   0  0  0  0  0  0  0  0  0  0  0  0
    9.8122   -2.9318    0.0000 C   0  0  0  0  0  0  0  0  0  0  0  0
    6.0000    3.7276    0.0000 C   0  0  0  0  0  0  0  0  0  0  0  0
    4.5000    2.8616    0.0000 C   0  0  0  0  0  0  0  0  0  0  0  0
    4.5000    1.1295    0.0000 C   0  0  0  0  0  0  0  0  0  0  0  0
    7.1340   -4.2365    0.0000 C   0  0  0  0  0  0  0  0  0  0  0  0
   10.3959   -3.7365    0.0000 C   0  0  0  0  0  0  0  0  0  0  0  0
    3.5000    2.8616    0.0000 C   0  0  0  0  0  0  0  0  0  0  0  0
    3.5000    1.1295    0.0000 C   0  0  0  0  0  0  0  0  0  0  0  0
    3.0000    1.9956    0.0000 C   0  0  0  0  0  0  0  0  0  0  0  0
    9.4766   -0.3442    0.0000 H   0  0  0  0  0  0  0  0  0  0  0  0
    9.0781    0.3461    0.0000 H   0  0  0  0  0  0  0  0  0  0  0  0
    6.9219    0.3461    0.0000 H   0  0  0  0  0  0  0  0  0  0  0  0
    6.5234   -0.3442    0.0000 H   0  0  0  0  0  0  0  0  0  0  0  0
    6.5234   -1.1288    0.0000 H   0  0  0  0  0  0  0  0  0  0  0  0
    6.9219   -1.8191    0.0000 H   0  0  0  0  0  0  0  0  0  0  0  0
    9.0781   -1.8191    0.0000 H   0  0  0  0  0  0  0  0  0  0  0  0
    9.4766   -1.1288    0.0000 H   0  0  0  0  0  0  0  0  0  0  0  0
    9.3486    0.6942    0.0000 H   0  0  0  0  0  0  0  0  0  0  0  0
    8.6584    1.5169    0.0000 H   0  0  0  0  0  0  0  0  0  0  0  0
    6.1900    0.5926    0.0000 H   0  0  0  0  0  0  0  0  0  0  0  0
    6.6200    1.9956    0.0000 H   0  0  0  0  0  0  0  0  0  0  0  0
    6.9750    2.4630    0.0000 H   0  0  0  0  0  0  0  0  0  0  0  0
    6.9750    3.2601    0.0000 H   0  0  0  0  0  0  0  0  0  0  0  0
    5.5250    4.1261    0.0000 H   0  0  0  0  0  0  0  0  0  0  0  0
    5.5250    3.3291    0.0000 H   0  0  0  0  0  0  0  0  0  0  0  0
   10.0049   -2.3424    0.0000 H   0  0  0  0  0  0  0  0  0  0  0  0
    4.8100    3.3985    0.0000 H   0  0  0  0  0  0  0  0  0  0  0  0
    4.8100    0.5926    0.0000 H   0  0  0  0  0  0  0  0  0  0  0  0
   10.0049   -5.1306    0.0000 H   0  0  0  0  0  0  0  0  0  0  0  0
    6.5970   -4.5465    0.0000 H   0  0  0  0  0  0  0  0  0  0  0  0
   11.0159   -3.7365    0.0000 H   0  0  0  0  0  0  0  0  0  0  0  0
    3.1900    3.3985    0.0000 H   0  0  0  0  0  0  0  0  0  0  0  0
    3.1900    0.5926    0.0000 H   0  0  0  0  0  0  0  0  0  0  0  0
    6.1900    5.1306    0.0000 H   0  0  0  0  0  0  0  0  0  0  0  0
  1 30  1  0  0  0  0
  2 15  2  0  0  0  0
  3 23  1  0  0  0  0
  3 55  1  0  0  0  0
  4 13  1  0  0  0  0
  4 14  1  0  0  0  0
  4 16  1  0  0  0  0
  5 10  1  0  0  0  0
  5 39  1  0  0  0  0
  5 40  1  0  0  0  0
  6 15  1  0  0  0  0
  6 41  1  0  0  0  0
  7 16  2  0  0  0  0
  7 26  1  0  0  0  0
  8 21  1  0  0  0  0
  8 27  1  0  0  0  0
  8 50  1  0  0  0  0
  9 21  1  0  0  0  0
  9 26  2  0  0  0  0
 10 11  1  0  0  0  0
 10 12  1  0  0  0  0
 10 15  1  0  0  0  0
 11 14  1  0  0  0  0
 11 31  1  0  0  0  0
 11 32  1  0  0  0  0
 12 13  1  0  0  0  0
 12 33  1  0  0  0  0
 12 34  1  0  0  0  0
 13 35  1  0  0  0  0
 13 36  1  0  0  0  0
 14 37  1  0  0  0  0
 14 38  1  0  0  0  0
 16 18  1  0  0  0  0
 17  6  1  0  0  0  0
 17 19  1  0  0  0  0
 17 20  1  0  0  0  0
 17 42  1  1  0  0  0
 18 21  2  0  0  0  0
 18 22  1  0  0  0  0
 19 23  1  0  0  0  0
 19 43  1  0  0  0  0
 19 44  1  0  0  0  0
 20 24  2  0  0  0  0
 20 25  1  0  0  0  0
 22 27  2  0  0  0  0
 22 47  1  0  0  0  0
 23 45  1  0  0  0  0
 23 46  1  0  0  0  0
 24 28  1  0  0  0  0
 24 48  1  0  0  0  0
 25 29  2  0  0  0  0
 25 49  1  0  0  0  0
 26 51  1  0  0  0  0
 27 52  1  0  0  0  0
 28 30  2  0  0  0  0
 28 53  1  0  0  0  0
 29 30  1  0  0  0  0
 29 54  1  0  0  0  0
M  END
>  <PUBCHEM_COMPOUND_CID>
25227436

>  <PUBCHEM_COMPOUND_CANONICALIZED>
1

>  <PUBCHEM_CACTVS_COMPLEXITY>
580

>  <PUBCHEM_CACTVS_HBOND_ACCEPTOR>
6

>  <PUBCHEM_CACTVS_HBOND_DONOR>
4

>  <PUBCHEM_CACTVS_ROTATABLE_BOND>
6

>  <PUBCHEM_CACTVS_SUBSKEYS>
AAADceB7sAAEAAAAAAAAAAAAAAAAAWAAAAA8WIAAAAAAAFgB/AAAHgIQCAAADKrhmyY9sN/JkgCoAjN3dACCgCmxB6AJ2aG4ZpiIePLB29GUZAhulgLIyCeUwKAOBAAAAAAAAAAIAAAAAAAAAAAAAAAAAA==

>  <PUBCHEM_IUPAC_OPENEYE_NAME>
4-amino-N-[(1S)-1-(4-chlorophenyl)-3-hydroxy-propyl]-1-(7H-pyrrolo[2,3-d]pyrimidin-4-yl)piperidine-4-carboxamide

>  <PUBCHEM_IUPAC_CAS_NAME>
4-amino-N-[(1S)-1-(4-chlorophenyl)-3-hydroxypropyl]-1-(7H-pyrrolo[2,3-d]pyrimidin-4-yl)-4-piperidinecarboxamide

>  <PUBCHEM_IUPAC_NAME>
4-amino-N-[(1S)-1-(4-chlorophenyl)-3-hydroxypropyl]-1-(7H-pyrrolo[2,3-d]pyrimidin-4-yl)piperidine-4-carboxamide

>  <PUBCHEM_IUPAC_SYSTEMATIC_NAME>
4-azanyl-N-[(1S)-1-(4-chlorophenyl)-3-oxidanyl-propyl]-1-(7H-pyrrolo[2,3-d]pyrimidin-4-yl)piperidine-4-carboxamide

>  <PUBCHEM_IUPAC_TRADITIONAL_NAME>
4-amino-N-[(1S)-1-(4-chlorophenyl)-3-hydroxy-propyl]-1-(7H-pyrrolo[2,3-d]pyrimidin-4-yl)isonipecotamide

>  <PUBCHEM_IUPAC_INCHI>
InChI=1S/C21H25ClN6O2/c22-15-3-1-14(2-4-15)17(6-12-29)27-20(30)21(23)7-10-28(11-8-21)19-16-5-9-24-18(16)25-13-26-19/h1-5,9,13,17,29H,6-8,10-12,23H2,(H,27,30)(H,24,25,26)/t17-/m0/s1

>  <PUBCHEM_IUPAC_INCHIKEY>
JDUBGYFRJFOXQC-KRWDZBQOSA-N

>  <PUBCHEM_XLOGP3_AA>
1.7

>  <PUBCHEM_EXACT_MASS>
428.172752

>  <PUBCHEM_MOLECULAR_FORMULA>
C21H25ClN6O2

>  <PUBCHEM_MOLECULAR_WEIGHT>
428.9152

>  <PUBCHEM_OPENEYE_CAN_SMILES>
C1CN(CCC1(C(=O)NC(CCO)C2=CC=C(C=C2)Cl)N)C3=NC=NC4=C3C=CN4

>  <PUBCHEM_OPENEYE_ISO_SMILES>
C1CN(CCC1(C(=O)N[C@@H](CCO)C2=CC=C(C=C2)Cl)N)C3=NC=NC4=C3C=CN4

>  <PUBCHEM_CACTVS_TPSA>
120

>  <PUBCHEM_MONOISOTOPIC_WEIGHT>
428.172752

>  <PUBCHEM_TOTAL_CHARGE>
0

>  <PUBCHEM_HEAVY_ATOM_COUNT>
30

>  <PUBCHEM_ATOM_DEF_STEREO_COUNT>
1

>  <PUBCHEM_ATOM_UDEF_STEREO_COUNT>
0

>  <PUBCHEM_BOND_DEF_STEREO_COUNT>
0

>  <PUBCHEM_BOND_UDEF_STEREO_COUNT>
0

>  <PUBCHEM_ISOTOPIC_ATOM_COUNT>
0

>  <PUBCHEM_COMPONENT_COUNT>
1

>  <PUBCHEM_CACTVS_TAUTO_COUNT>
6

>  <PUBCHEM_COORDINATE_TYPE>
1
5
255

>  <PUBCHEM_BONDANNOTATIONS>
16  18  8
18  21  8
18  22  8
20  24  8
20  25  8
22  27  8
24  28  8
25  29  8
28  30  8
29  30  8
17  6  6
7  16  8
7  26  8
8  21  8
8  27  8
9  21  8
9  26  8

$$$$
