
 OpenBabel11121517312D

 38 40  0  0  1  0  0  0  0  0999 V2000
    2.8644    2.6739    0.0000 Cl  0  0  0  0  0  0  0  0  0  0  0  0
   10.6587   -0.8261    0.0000 F   0  0  0  0  0  0  0  0  0  0  0  0
    6.3285    0.6739    0.0000 N   0  0  0  0  0  0  0  0  0  0  0  0
    2.8644    0.6739    0.0000 N   0  0  0  0  0  0  0  0  0  0  0  0
    4.5965    0.6739    0.0000 N   0  0  0  0  0  0  0  0  0  0  0  0
    8.9266    1.1739    0.0000 N   0  0  0  0  0  0  0  0  0  0  0  0
    8.0606   -0.3261    0.0000 N   0  0  0  0  0  0  0  0  0  0  0  0
    5.4625    2.1739    0.0000 N   0  0  0  0  0  0  0  0  0  0  0  0
    2.3644   -1.8649    0.0000 N   0  0  0  0  0  0  0  0  0  0  0  0
    2.0554   -0.9139    0.0000 N   0  0  0  0  0  0  0  0  0  0  0  0
    7.1946    1.1739    0.0000 C   0  0  1  0  0  0  0  0  0  0  0  0
    7.1946    2.1739    0.0000 C   0  0  0  0  0  0  0  0  0  0  0  0
    8.0606    0.6739    0.0000 C   0  0  0  0  0  0  0  0  0  0  0  0
    5.4625    1.1739    0.0000 C   0  0  0  0  0  0  0  0  0  0  0  0
    3.7304    1.1739    0.0000 C   0  0  0  0  0  0  0  0  0  0  0  0
    2.8644   -0.3261    0.0000 C   0  0  0  0  0  0  0  0  0  0  0  0
    3.3644   -1.8649    0.0000 C   0  0  0  0  0  0  0  0  0  0  0  0
    3.6734   -0.9139    0.0000 C   0  0  0  0  0  0  0  0  0  0  0  0
    3.7304    2.1739    0.0000 C   0  0  0  0  0  0  0  0  0  0  0  0
    4.5965    2.6739    0.0000 C   0  0  0  0  0  0  0  0  0  0  0  0
    3.9522   -2.6739    0.0000 C   0  0  0  0  0  0  0  0  0  0  0  0
    9.7926    0.6739    0.0000 C   0  0  0  0  0  0  0  0  0  0  0  0
    8.9266   -0.8261    0.0000 C   0  0  0  0  0  0  0  0  0  0  0  0
    9.7926   -0.3261    0.0000 C   0  0  0  0  0  0  0  0  0  0  0  0
    7.1946    0.5539    0.0000 H   0  0  0  0  0  0  0  0  0  0  0  0
    6.3285    0.0539    0.0000 H   0  0  0  0  0  0  0  0  0  0  0  0
    7.8146    2.1739    0.0000 H   0  0  0  0  0  0  0  0  0  0  0  0
    7.1946    2.7939    0.0000 H   0  0  0  0  0  0  0  0  0  0  0  0
    6.5746    2.1739    0.0000 H   0  0  0  0  0  0  0  0  0  0  0  0
    2.3275    0.9839    0.0000 H   0  0  0  0  0  0  0  0  0  0  0  0
    4.2631   -0.7223    0.0000 H   0  0  0  0  0  0  0  0  0  0  0  0
    2.0000   -2.3665    0.0000 H   0  0  0  0  0  0  0  0  0  0  0  0
    4.5965    3.2939    0.0000 H   0  0  0  0  0  0  0  0  0  0  0  0
    3.4506   -3.0384    0.0000 H   0  0  0  0  0  0  0  0  0  0  0  0
    4.3166   -3.1755    0.0000 H   0  0  0  0  0  0  0  0  0  0  0  0
    4.4538   -2.3095    0.0000 H   0  0  0  0  0  0  0  0  0  0  0  0
   10.3296    0.9839    0.0000 H   0  0  0  0  0  0  0  0  0  0  0  0
    8.9266   -1.4461    0.0000 H   0  0  0  0  0  0  0  0  0  0  0  0
  1 19  1  0  0  0  0
  2 24  1  0  0  0  0
  3 14  1  0  0  0  0
  3 26  1  0  0  0  0
  4 15  1  0  0  0  0
  4 16  1  0  0  0  0
  4 30  1  0  0  0  0
  5 14  1  0  0  0  0
  5 15  2  0  0  0  0
  6 13  1  0  0  0  0
  6 22  2  0  0  0  0
  7 13  2  0  0  0  0
  7 23  1  0  0  0  0
  8 14  2  0  0  0  0
  8 20  1  0  0  0  0
  9 10  1  0  0  0  0
  9 17  1  0  0  0  0
  9 32  1  0  0  0  0
 10 16  2  0  0  0  0
 11  3  1  0  0  0  0
 11 12  1  0  0  0  0
 11 13  1  0  0  0  0
 11 25  1  6  0  0  0
 12 27  1  0  0  0  0
 12 28  1  0  0  0  0
 12 29  1  0  0  0  0
 15 19  1  0  0  0  0
 16 18  1  0  0  0  0
 17 18  2  0  0  0  0
 17 21  1  0  0  0  0
 18 31  1  0  0  0  0
 19 20  2  0  0  0  0
 20 33  1  0  0  0  0
 21 34  1  0  0  0  0
 21 35  1  0  0  0  0
 21 36  1  0  0  0  0
 22 24  1  0  0  0  0
 22 37  1  0  0  0  0
 23 24  2  0  0  0  0
 23 38  1  0  0  0  0
M  END
>  <PUBCHEM_COMPOUND_CID>
16659841

>  <PUBCHEM_COMPOUND_CANONICALIZED>
1

>  <PUBCHEM_CACTVS_COMPLEXITY>
397

>  <PUBCHEM_CACTVS_HBOND_ACCEPTOR>
8

>  <PUBCHEM_CACTVS_HBOND_DONOR>
3

>  <PUBCHEM_CACTVS_ROTATABLE_BOND>
5

>  <PUBCHEM_CACTVS_SUBSKEYS>
AAADccBzwQAEAAAAAAAAAAAAAAAAAWAAAAAsWAAAAAAAAAAB+AAAHQIYAAAACCrBFyw/sJbrEACiATZnZACQhCsxA6AVeaA4ZBiAaMBAycBUhAhYGALAQCAAAAAAAAAAAAAAAAAAAAAAAAAAAAAAAAAAAA==

>  <PUBCHEM_IUPAC_OPENEYE_NAME>
5-chloro-N2-[(1S)-1-(5-fluoropyrimidin-2-yl)ethyl]-N4-(5-methyl-1H-pyrazol-3-yl)pyrimidine-2,4-diamine

>  <PUBCHEM_IUPAC_CAS_NAME>
5-chloro-N2-[(1S)-1-(5-fluoro-2-pyrimidinyl)ethyl]-N4-(5-methyl-1H-pyrazol-3-yl)pyrimidine-2,4-diamine

>  <PUBCHEM_IUPAC_NAME>
5-chloro-2-N-[(1S)-1-(5-fluoropyrimidin-2-yl)ethyl]-4-N-(5-methyl-1H-pyrazol-3-yl)pyrimidine-2,4-diamine

>  <PUBCHEM_IUPAC_SYSTEMATIC_NAME>
5-chloranyl-N2-[(1S)-1-(5-fluoranylpyrimidin-2-yl)ethyl]-N4-(5-methyl-1H-pyrazol-3-yl)pyrimidine-2,4-diamine

>  <PUBCHEM_IUPAC_TRADITIONAL_NAME>
[5-chloro-2-[[(1S)-1-(5-fluoropyrimidin-2-yl)ethyl]amino]pyrimidin-4-yl]-(5-methyl-1H-pyrazol-3-yl)amine

>  <PUBCHEM_IUPAC_INCHI>
InChI=1S/C14H14ClFN8/c1-7-3-11(24-23-7)21-13-10(15)6-19-14(22-13)20-8(2)12-17-4-9(16)5-18-12/h3-6,8H,1-2H3,(H3,19,20,21,22,23,24)/t8-/m0/s1

>  <PUBCHEM_IUPAC_INCHIKEY>
PDOQBOJDRPLBQU-QMMMGPOBSA-N

>  <PUBCHEM_XLOGP3_AA>
2.4

>  <PUBCHEM_EXACT_MASS>
348.101398

>  <PUBCHEM_MOLECULAR_FORMULA>
C14H14ClFN8

>  <PUBCHEM_MOLECULAR_WEIGHT>
348.765963

>  <PUBCHEM_OPENEYE_CAN_SMILES>
CC1=CC(=NN1)NC2=NC(=NC=C2Cl)NC(C)C3=NC=C(C=N3)F

>  <PUBCHEM_OPENEYE_ISO_SMILES>
CC1=CC(=NN1)NC2=NC(=NC=C2Cl)N[C@@H](C)C3=NC=C(C=N3)F

>  <PUBCHEM_CACTVS_TPSA>
104

>  <PUBCHEM_MONOISOTOPIC_WEIGHT>
348.101398

>  <PUBCHEM_TOTAL_CHARGE>
0

>  <PUBCHEM_HEAVY_ATOM_COUNT>
24

>  <PUBCHEM_ATOM_DEF_STEREO_COUNT>
1

>  <PUBCHEM_ATOM_UDEF_STEREO_COUNT>
0

>  <PUBCHEM_BOND_DEF_STEREO_COUNT>
0

>  <PUBCHEM_BOND_UDEF_STEREO_COUNT>
0

>  <PUBCHEM_ISOTOPIC_ATOM_COUNT>
0

>  <PUBCHEM_COMPONENT_COUNT>
1

>  <PUBCHEM_CACTVS_TAUTO_COUNT>
57

>  <PUBCHEM_COORDINATE_TYPE>
1
5
255

>  <PUBCHEM_BONDANNOTATIONS>
10  16  8
15  19  8
16  18  8
17  18  8
19  20  8
22  24  8
23  24  8
11  3  5
5  14  8
5  15  8
6  13  8
6  22  8
7  13  8
7  23  8
8  14  8
8  20  8
9  10  8
9  17  8

$$$$
