
 OpenBabel11121517312D

 23 20  0  0  0  0  0  0  0  0999 V2000
    3.7320    0.9688    0.0000 Pt  0  0  0  0  0 15  0  0  0  0  0  0
    4.5981    0.4688    0.0000 O   0  5  0  0  0  0  0  0  0  0  0  0
    2.8660    0.4688    0.0000 O   0  5  0  0  0  0  0  0  0  0  0  0
    2.0000   -1.0312    0.0000 O   0  0  0  0  0  0  0  0  0  0  0  0
    5.4641   -1.0312    0.0000 O   0  0  0  0  0  0  0  0  0  0  0  0
    4.2320    1.8348    0.0000 N   0  5  0  0  0  0  0  0  0  0  0  0
    2.9660    1.6116    0.0000 N   0  5  0  0  0  0  0  0  0  0  0  0
    3.7320   -1.0312    0.0000 C   0  0  0  0  0  0  0  0  0  0  0  0
    4.4392   -1.7383    0.0000 C   0  0  0  0  0  0  0  0  0  0  0  0
    3.0249   -1.7383    0.0000 C   0  0  0  0  0  0  0  0  0  0  0  0
    3.7320   -2.4454    0.0000 C   0  0  0  0  0  0  0  0  0  0  0  0
    2.8660   -0.5312    0.0000 C   0  0  0  0  0  0  0  0  0  0  0  0
    4.5981   -0.5312    0.0000 C   0  0  0  0  0  0  0  0  0  0  0  0
    2.5865   -1.2999    0.0000 H   0  0  0  0  0  0  0  0  0  0  0  0
    2.5865   -2.1767    0.0000 H   0  0  0  0  0  0  0  0  0  0  0  0
    4.8776   -2.1767    0.0000 H   0  0  0  0  0  0  0  0  0  0  0  0
    4.8776   -1.2999    0.0000 H   0  0  0  0  0  0  0  0  0  0  0  0
    3.2936   -2.8838    0.0000 H   0  0  0  0  0  0  0  0  0  0  0  0
    4.1705   -2.8838    0.0000 H   0  0  0  0  0  0  0  0  0  0  0  0
    2.3834    1.3995    0.0000 H   0  0  0  0  0  0  0  0  0  0  0  0
    3.0737    2.2222    0.0000 H   0  0  0  0  0  0  0  0  0  0  0  0
    4.8520    1.8348    0.0000 H   0  0  0  0  0  0  0  0  0  0  0  0
    4.1244    2.4454    0.0000 H   0  0  0  0  0  0  0  0  0  0  0  0
  2 13  1  0  0  0  0
  3 12  1  0  0  0  0
  4 12  2  0  0  0  0
  5 13  2  0  0  0  0
  6 22  1  0  0  0  0
  6 23  1  0  0  0  0
  7 20  1  0  0  0  0
  7 21  1  0  0  0  0
  8  9  1  0  0  0  0
  8 10  1  0  0  0  0
  8 12  1  0  0  0  0
  8 13  1  0  0  0  0
  9 11  1  0  0  0  0
  9 16  1  0  0  0  0
  9 17  1  0  0  0  0
 10 11  1  0  0  0  0
 10 14  1  0  0  0  0
 10 15  1  0  0  0  0
 11 18  1  0  0  0  0
 11 19  1  0  0  0  0
M  CHG  5   1   4   2  -1   3  -1   6  -1   7  -1
M  END
>  <PUBCHEM_COMPOUND_CID>
73554252

>  <PUBCHEM_COMPOUND_CANONICALIZED>
1

>  <PUBCHEM_CACTVS_COMPLEXITY>
153

>  <PUBCHEM_CACTVS_HBOND_ACCEPTOR>
6

>  <PUBCHEM_CACTVS_HBOND_DONOR>
2

>  <PUBCHEM_CACTVS_ROTATABLE_BOND>
0

>  <PUBCHEM_CACTVS_SUBSKEYS>
AAADccBjOAAAAAAAAAAABAAAAABgAAAAAAAAAAAAAAAAAAAAAAAAGgAQAAAADgCAgAAACAAAAAAIAACQCAAAAAAAAAAAAAEAAAAAABYIAAAAAAAFIAAAAACIAAANAAAAAAAAAAAAAAAAAAAAAAAAAAAAAA==

>  <PUBCHEM_IUPAC_OPENEYE_NAME>
azanide;cyclobutane-1,1-dicarboxylate;platinum(4+)

>  <PUBCHEM_IUPAC_CAS_NAME>
azanide;cyclobutane-1,1-dicarboxylate;platinum(4+)

>  <PUBCHEM_IUPAC_NAME>
azanide;cyclobutane-1,1-dicarboxylate;platinum(4+)

>  <PUBCHEM_IUPAC_SYSTEMATIC_NAME>
azanide;cyclobutane-1,1-dicarboxylate;platinum(4+)

>  <PUBCHEM_IUPAC_TRADITIONAL_NAME>
azanide;cyclobutane-1,1-dicarboxylate;platinum(4+)

>  <PUBCHEM_IUPAC_INCHI>
InChI=1S/C6H8O4.2H2N.Pt/c7-4(8)6(5(9)10)2-1-3-6;;;/h1-3H2,(H,7,8)(H,9,10);2*1H2;/q;2*-1;+4/p-2

>  <PUBCHEM_IUPAC_INCHIKEY>
YAYRGNWWLMLWJE-UHFFFAOYSA-L

>  <PUBCHEM_EXACT_MASS>
369.028848

>  <PUBCHEM_MOLECULAR_FORMULA>
C6H10N2O4Pt

>  <PUBCHEM_MOLECULAR_WEIGHT>
369.2386

>  <PUBCHEM_OPENEYE_CAN_SMILES>
C1CC(C1)(C(=O)[O-])C(=O)[O-].[NH2-].[NH2-].[Pt+4]

>  <PUBCHEM_OPENEYE_ISO_SMILES>
C1CC(C1)(C(=O)[O-])C(=O)[O-].[NH2-].[NH2-].[Pt+4]

>  <PUBCHEM_CACTVS_TPSA>
82.3

>  <PUBCHEM_MONOISOTOPIC_WEIGHT>
369.028848

>  <PUBCHEM_TOTAL_CHARGE>
0

>  <PUBCHEM_HEAVY_ATOM_COUNT>
13

>  <PUBCHEM_ATOM_DEF_STEREO_COUNT>
0

>  <PUBCHEM_ATOM_UDEF_STEREO_COUNT>
0

>  <PUBCHEM_BOND_DEF_STEREO_COUNT>
0

>  <PUBCHEM_BOND_UDEF_STEREO_COUNT>
0

>  <PUBCHEM_ISOTOPIC_ATOM_COUNT>
0

>  <PUBCHEM_COMPONENT_COUNT>
4

>  <PUBCHEM_CACTVS_TAUTO_COUNT>
1

>  <PUBCHEM_COORDINATE_TYPE>
1
5
255

$$$$
