
 OpenBabel11121517312D

 49 54  0  0  0  0  0  0  0  0999 V2000
    4.5274   -0.3089    0.0000 S   0  0  0  0  0  0  0  0  0  0  0  0
   11.3199   -2.2422    0.0000 O   0  0  0  0  0  0  0  0  0  0  0  0
    8.3343   -0.2207    0.0000 O   0  0  0  0  0  0  0  0  0  0  0  0
    9.2614    2.6324    0.0000 O   0  0  0  0  0  0  0  0  0  0  0  0
    9.9816   -0.7560    0.0000 N   0  0  0  0  0  0  0  0  0  0  0  0
    9.6726   -1.7070    0.0000 C   0  0  0  0  0  0  0  0  0  0  0  0
   10.9597   -0.5480    0.0000 C   0  0  0  0  0  0  0  0  0  0  0  0
    9.3125   -0.0128    0.0000 C   0  0  0  0  0  0  0  0  0  0  0  0
   11.6289   -1.2912    0.0000 C   0  0  0  0  0  0  0  0  0  0  0  0
   10.3417   -2.4502    0.0000 C   0  0  0  0  0  0  0  0  0  0  0  0
    6.6498    0.2902    0.0000 C   0  0  0  0  0  0  0  0  0  0  0  0
    7.6652    0.5224    0.0000 C   0  0  0  0  0  0  0  0  0  0  0  0
    6.3518   -0.6644    0.0000 C   0  0  0  0  0  0  0  0  0  0  0  0
    5.3364   -0.8966    0.0000 C   0  0  0  0  0  0  0  0  0  0  0  0
    5.0274   -1.8477    0.0000 C   0  0  0  0  0  0  0  0  0  0  0  0
    7.9742    1.4735    0.0000 C   0  0  0  0  0  0  0  0  0  0  0  0
    4.0274   -1.8477    0.0000 C   0  0  0  0  0  0  0  0  0  0  0  0
    9.6215    0.9382    0.0000 C   0  0  0  0  0  0  0  0  0  0  0  0
    8.9524    1.6814    0.0000 C   0  0  0  0  0  0  0  0  0  0  0  0
    3.7183   -0.8966    0.0000 C   0  0  0  0  0  0  0  0  0  0  0  0
    5.9469    1.0588    0.0000 C   0  0  0  0  0  0  0  0  0  0  0  0
    7.0547   -1.4331    0.0000 C   0  0  0  0  0  0  0  0  0  0  0  0
    5.7123   -2.6324    0.0000 C   0  0  0  0  0  0  0  0  0  0  0  0
    7.2892    2.2582    0.0000 C   0  0  0  0  0  0  0  0  0  0  0  0
    6.7328   -2.4237    0.0000 C   0  0  0  0  0  0  0  0  0  0  0  0
    6.2687    2.0495    0.0000 C   0  0  0  0  0  0  0  0  0  0  0  0
    3.3424   -2.6324    0.0000 C   0  0  0  0  0  0  0  0  0  0  0  0
    2.7029   -0.6644    0.0000 C   0  0  0  0  0  0  0  0  0  0  0  0
    2.3219   -2.4237    0.0000 C   0  0  0  0  0  0  0  0  0  0  0  0
    2.0000   -1.4331    0.0000 C   0  0  0  0  0  0  0  0  0  0  0  0
    9.1252   -1.4159    0.0000 H   0  0  0  0  0  0  0  0  0  0  0  0
    9.2909   -2.1956    0.0000 H   0  0  0  0  0  0  0  0  0  0  0  0
   11.4855   -0.2195    0.0000 H   0  0  0  0  0  0  0  0  0  0  0  0
   10.7275    0.0268    0.0000 H   0  0  0  0  0  0  0  0  0  0  0  0
   12.1763   -1.5823    0.0000 H   0  0  0  0  0  0  0  0  0  0  0  0
   12.0106   -0.8026    0.0000 H   0  0  0  0  0  0  0  0  0  0  0  0
    9.8159   -2.7787    0.0000 H   0  0  0  0  0  0  0  0  0  0  0  0
   10.5740   -3.0250    0.0000 H   0  0  0  0  0  0  0  0  0  0  0  0
   10.2279    1.0672    0.0000 H   0  0  0  0  0  0  0  0  0  0  0  0
    5.3409    0.9276    0.0000 H   0  0  0  0  0  0  0  0  0  0  0  0
    7.6607   -1.3018    0.0000 H   0  0  0  0  0  0  0  0  0  0  0  0
    5.5139   -3.2198    0.0000 H   0  0  0  0  0  0  0  0  0  0  0  0
    7.4876    2.8456    0.0000 H   0  0  0  0  0  0  0  0  0  0  0  0
    7.1459   -2.8861    0.0000 H   0  0  0  0  0  0  0  0  0  0  0  0
    5.8556    2.5118    0.0000 H   0  0  0  0  0  0  0  0  0  0  0  0
    3.5408   -3.2198    0.0000 H   0  0  0  0  0  0  0  0  0  0  0  0
    2.5182   -0.0726    0.0000 H   0  0  0  0  0  0  0  0  0  0  0  0
    1.9088   -2.8861    0.0000 H   0  0  0  0  0  0  0  0  0  0  0  0
    1.3940   -1.3018    0.0000 H   0  0  0  0  0  0  0  0  0  0  0  0
  1 14  1  0  0  0  0
  1 20  1  0  0  0  0
  2  9  1  0  0  0  0
  2 10  1  0  0  0  0
  3  8  1  0  0  0  0
  3 12  1  0  0  0  0
  4 19  2  0  0  0  0
  5  6  1  0  0  0  0
  5  7  1  0  0  0  0
  5  8  1  0  0  0  0
  6 10  1  0  0  0  0
  6 31  1  0  0  0  0
  6 32  1  0  0  0  0
  7  9  1  0  0  0  0
  7 33  1  0  0  0  0
  7 34  1  0  0  0  0
  8 18  2  0  0  0  0
  9 35  1  0  0  0  0
  9 36  1  0  0  0  0
 10 37  1  0  0  0  0
 10 38  1  0  0  0  0
 11 12  1  0  0  0  0
 11 13  1  0  0  0  0
 11 21  2  0  0  0  0
 12 16  2  0  0  0  0
 13 14  1  0  0  0  0
 13 22  2  0  0  0  0
 14 15  2  0  0  0  0
 15 17  1  0  0  0  0
 15 23  1  0  0  0  0
 16 19  1  0  0  0  0
 16 24  1  0  0  0  0
 17 20  1  0  0  0  0
 17 27  2  0  0  0  0
 18 19  1  0  0  0  0
 18 39  1  0  0  0  0
 20 28  2  0  0  0  0
 21 26  1  0  0  0  0
 21 40  1  0  0  0  0
 22 25  1  0  0  0  0
 22 41  1  0  0  0  0
 23 25  2  0  0  0  0
 23 42  1  0  0  0  0
 24 26  2  0  0  0  0
 24 43  1  0  0  0  0
 25 44  1  0  0  0  0
 26 45  1  0  0  0  0
 27 29  1  0  0  0  0
 27 46  1  0  0  0  0
 28 30  1  0  0  0  0
 28 47  1  0  0  0  0
 29 30  2  0  0  0  0
 29 48  1  0  0  0  0
 30 49  1  0  0  0  0
M  END
>  <PUBCHEM_COMPOUND_CID>
11327430

>  <PUBCHEM_COMPOUND_CANONICALIZED>
1

>  <PUBCHEM_CACTVS_COMPLEXITY>
690

>  <PUBCHEM_CACTVS_HBOND_ACCEPTOR>
5

>  <PUBCHEM_CACTVS_HBOND_DONOR>
0

>  <PUBCHEM_CACTVS_ROTATABLE_BOND>
2

>  <PUBCHEM_CACTVS_SUBSKEYS>
AAADceB6MABAAAAAAAAAAAAAAAAAASAAAAA8YMECAAAAAEiB/AAAHgQAAAAADATh2AYwB8MABAiMAqBSQAADCIAkKhBIiBkMCMgOJjakNRqLMWAk4BG4qceIyPCOgAACAAAMAAAAAAQAABgAAAAAAAAAAA==

>  <PUBCHEM_IUPAC_OPENEYE_NAME>
8-dibenzothiophen-4-yl-2-morpholino-chromen-4-one

>  <PUBCHEM_IUPAC_CAS_NAME>
8-(4-dibenzothiophenyl)-2-(4-morpholinyl)-1-benzopyran-4-one

>  <PUBCHEM_IUPAC_NAME>
8-dibenzothiophen-4-yl-2-morpholin-4-ylchromen-4-one

>  <PUBCHEM_IUPAC_SYSTEMATIC_NAME>
8-dibenzothiophen-4-yl-2-morpholin-4-yl-chromen-4-one

>  <PUBCHEM_IUPAC_TRADITIONAL_NAME>
8-dibenzothiophen-4-yl-2-morpholino-chromone

>  <PUBCHEM_IUPAC_INCHI>
InChI=1S/C25H19NO3S/c27-21-15-23(26-11-13-28-14-12-26)29-24-17(6-3-9-20(21)24)19-8-4-7-18-16-5-1-2-10-22(16)30-25(18)19/h1-10,15H,11-14H2

>  <PUBCHEM_IUPAC_INCHIKEY>
JAMULYFATHSZJM-UHFFFAOYSA-N

>  <PUBCHEM_XLOGP3_AA>
5.5

>  <PUBCHEM_EXACT_MASS>
413.108564

>  <PUBCHEM_MOLECULAR_FORMULA>
C25H19NO3S

>  <PUBCHEM_MOLECULAR_WEIGHT>
413.48826

>  <PUBCHEM_OPENEYE_CAN_SMILES>
C1COCCN1C2=CC(=O)C3=C(O2)C(=CC=C3)C4=CC=CC5=C4SC6=CC=CC=C56

>  <PUBCHEM_OPENEYE_ISO_SMILES>
C1COCCN1C2=CC(=O)C3=C(O2)C(=CC=C3)C4=CC=CC5=C4SC6=CC=CC=C56

>  <PUBCHEM_CACTVS_TPSA>
67

>  <PUBCHEM_MONOISOTOPIC_WEIGHT>
413.108564

>  <PUBCHEM_TOTAL_CHARGE>
0

>  <PUBCHEM_HEAVY_ATOM_COUNT>
30

>  <PUBCHEM_ATOM_DEF_STEREO_COUNT>
0

>  <PUBCHEM_ATOM_UDEF_STEREO_COUNT>
0

>  <PUBCHEM_BOND_DEF_STEREO_COUNT>
0

>  <PUBCHEM_BOND_UDEF_STEREO_COUNT>
0

>  <PUBCHEM_ISOTOPIC_ATOM_COUNT>
0

>  <PUBCHEM_COMPONENT_COUNT>
1

>  <PUBCHEM_CACTVS_TAUTO_COUNT>
1

>  <PUBCHEM_COORDINATE_TYPE>
1
5
255

>  <PUBCHEM_BONDANNOTATIONS>
1  14  8
1  20  8
11  12  8
11  21  8
12  16  8
13  14  8
13  22  8
14  15  8
15  17  8
15  23  8
16  19  8
16  24  8
17  20  8
17  27  8
18  19  8
20  28  8
21  26  8
22  25  8
23  25  8
24  26  8
27  29  8
28  30  8
29  30  8
3  12  8
3  8  8
8  18  8

$$$$
