
 OpenBabel11121517312D

 62 67  0  0  0  0  0  0  0  0999 V2000
   10.8600   -3.2990    0.0000 S   0  0  0  0  0  0  0  0  0  0  0  0
    7.2764    0.9698    0.0000 S   0  0  0  0  0  0  0  0  0  0  0  0
   11.7260   -2.7990    0.0000 O   0  0  0  0  0  0  0  0  0  0  0  0
    9.9939   -3.7990    0.0000 O   0  0  0  0  0  0  0  0  0  0  0  0
    5.4641    4.1651    0.0000 O   0  0  0  0  0  0  0  0  0  0  0  0
    9.3600   -0.7010    0.0000 N   0  0  0  0  0  0  0  0  0  0  0  0
   10.3600   -2.4330    0.0000 N   0  0  0  0  0  0  0  0  0  0  0  0
    5.4641    2.1651    0.0000 N   0  0  0  0  0  0  0  0  0  0  0  0
    4.5981    0.6651    0.0000 N   0  0  0  0  0  0  0  0  0  0  0  0
    5.4641   -0.8349    0.0000 N   0  0  0  0  0  0  0  0  0  0  0  0
    3.0752   -3.3068    0.0000 N   0  0  0  0  0  0  0  0  0  0  0  0
    4.0640   -3.4098    0.0000 N   0  0  0  0  0  0  0  0  0  0  0  0
    8.8600   -1.5670    0.0000 C   0  0  0  0  0  0  0  0  0  0  0  0
   10.3600   -0.7010    0.0000 C   0  0  0  0  0  0  0  0  0  0  0  0
   10.8600   -1.5670    0.0000 C   0  0  0  0  0  0  0  0  0  0  0  0
    9.3600   -2.4330    0.0000 C   0  0  0  0  0  0  0  0  0  0  0  0
    8.8600    0.1651    0.0000 C   0  0  0  0  0  0  0  0  0  0  0  0
    7.8600    0.1651    0.0000 C   0  0  0  0  0  0  0  0  0  0  0  0
    6.3301    0.6651    0.0000 C   0  0  0  0  0  0  0  0  0  0  0  0
    5.4641    1.1651    0.0000 C   0  0  0  0  0  0  0  0  0  0  0  0
    7.2764   -0.6397    0.0000 C   0  0  0  0  0  0  0  0  0  0  0  0
    6.3301   -0.3349    0.0000 C   0  0  0  0  0  0  0  0  0  0  0  0
   11.3600   -4.1651    0.0000 C   0  0  0  0  0  0  0  0  0  0  0  0
    4.5981    2.6651    0.0000 C   0  0  0  0  0  0  0  0  0  0  0  0
    6.3301    2.6651    0.0000 C   0  0  0  0  0  0  0  0  0  0  0  0
    6.3301    3.6651    0.0000 C   0  0  0  0  0  0  0  0  0  0  0  0
    4.5981    3.6651    0.0000 C   0  0  0  0  0  0  0  0  0  0  0  0
    4.5981   -0.3349    0.0000 C   0  0  0  0  0  0  0  0  0  0  0  0
    3.7320   -0.8349    0.0000 C   0  0  0  0  0  0  0  0  0  0  0  0
    3.7320   -1.8349    0.0000 C   0  0  0  0  0  0  0  0  0  0  0  0
    2.8660   -0.3349    0.0000 C   0  0  0  0  0  0  0  0  0  0  0  0
    2.8660   -2.3349    0.0000 C   0  0  0  0  0  0  0  0  0  0  0  0
    4.4691   -2.5020    0.0000 C   0  0  0  0  0  0  0  0  0  0  0  0
    2.0000   -0.8349    0.0000 C   0  0  0  0  0  0  0  0  0  0  0  0
    2.0000   -1.8349    0.0000 C   0  0  0  0  0  0  0  0  0  0  0  0
   10.9426   -0.4889    0.0000 H   0  0  0  0  0  0  0  0  0  0  0  0
   10.2523   -0.0904    0.0000 H   0  0  0  0  0  0  0  0  0  0  0  0
    8.3850   -1.1685    0.0000 H   0  0  0  0  0  0  0  0  0  0  0  0
    8.3850   -1.9655    0.0000 H   0  0  0  0  0  0  0  0  0  0  0  0
   11.3349   -1.9655    0.0000 H   0  0  0  0  0  0  0  0  0  0  0  0
   11.3349   -1.1685    0.0000 H   0  0  0  0  0  0  0  0  0  0  0  0
    8.7774   -2.6451    0.0000 H   0  0  0  0  0  0  0  0  0  0  0  0
    9.4676   -3.0436    0.0000 H   0  0  0  0  0  0  0  0  0  0  0  0
    9.4426    0.3771    0.0000 H   0  0  0  0  0  0  0  0  0  0  0  0
    8.7523    0.7756    0.0000 H   0  0  0  0  0  0  0  0  0  0  0  0
    7.4690   -1.2290    0.0000 H   0  0  0  0  0  0  0  0  0  0  0  0
   10.8230   -4.4751    0.0000 H   0  0  0  0  0  0  0  0  0  0  0  0
   11.6700   -4.7020    0.0000 H   0  0  0  0  0  0  0  0  0  0  0  0
   11.8969   -3.8551    0.0000 H   0  0  0  0  0  0  0  0  0  0  0  0
    6.5422    2.0824    0.0000 H   0  0  0  0  0  0  0  0  0  0  0  0
    6.9407    2.7727    0.0000 H   0  0  0  0  0  0  0  0  0  0  0  0
    3.9875    2.7727    0.0000 H   0  0  0  0  0  0  0  0  0  0  0  0
    4.3860    2.0824    0.0000 H   0  0  0  0  0  0  0  0  0  0  0  0
    6.9407    3.5574    0.0000 H   0  0  0  0  0  0  0  0  0  0  0  0
    6.5422    4.2477    0.0000 H   0  0  0  0  0  0  0  0  0  0  0  0
    4.3860    4.2477    0.0000 H   0  0  0  0  0  0  0  0  0  0  0  0
    3.9875    3.5574    0.0000 H   0  0  0  0  0  0  0  0  0  0  0  0
    2.8660    0.2851    0.0000 H   0  0  0  0  0  0  0  0  0  0  0  0
    5.0757   -2.3742    0.0000 H   0  0  0  0  0  0  0  0  0  0  0  0
    1.4631   -0.5249    0.0000 H   0  0  0  0  0  0  0  0  0  0  0  0
    1.4631   -2.1449    0.0000 H   0  0  0  0  0  0  0  0  0  0  0  0
    2.6612   -3.7682    0.0000 H   0  0  0  0  0  0  0  0  0  0  0  0
  1  3  2  0  0  0  0
  1  4  2  0  0  0  0
  1  7  1  0  0  0  0
  1 23  1  0  0  0  0
  2 18  1  0  0  0  0
  2 19  1  0  0  0  0
  5 26  1  0  0  0  0
  5 27  1  0  0  0  0
  6 13  1  0  0  0  0
  6 14  1  0  0  0  0
  6 17  1  0  0  0  0
  7 15  1  0  0  0  0
  7 16  1  0  0  0  0
  8 20  1  0  0  0  0
  8 24  1  0  0  0  0
  8 25  1  0  0  0  0
  9 20  2  0  0  0  0
  9 28  1  0  0  0  0
 10 22  1  0  0  0  0
 10 28  2  0  0  0  0
 11 12  1  0  0  0  0
 11 32  1  0  0  0  0
 11 62  1  0  0  0  0
 12 33  2  0  0  0  0
 13 16  1  0  0  0  0
 13 38  1  0  0  0  0
 13 39  1  0  0  0  0
 14 15  1  0  0  0  0
 14 36  1  0  0  0  0
 14 37  1  0  0  0  0
 15 40  1  0  0  0  0
 15 41  1  0  0  0  0
 16 42  1  0  0  0  0
 16 43  1  0  0  0  0
 17 18  1  0  0  0  0
 17 44  1  0  0  0  0
 17 45  1  0  0  0  0
 18 21  2  0  0  0  0
 19 20  1  0  0  0  0
 19 22  2  0  0  0  0
 21 22  1  0  0  0  0
 21 46  1  0  0  0  0
 23 47  1  0  0  0  0
 23 48  1  0  0  0  0
 23 49  1  0  0  0  0
 24 27  1  0  0  0  0
 24 52  1  0  0  0  0
 24 53  1  0  0  0  0
 25 26  1  0  0  0  0
 25 50  1  0  0  0  0
 25 51  1  0  0  0  0
 26 54  1  0  0  0  0
 26 55  1  0  0  0  0
 27 56  1  0  0  0  0
 27 57  1  0  0  0  0
 28 29  1  0  0  0  0
 29 30  2  0  0  0  0
 29 31  1  0  0  0  0
 30 32  1  0  0  0  0
 30 33  1  0  0  0  0
 31 34  2  0  0  0  0
 31 58  1  0  0  0  0
 32 35  2  0  0  0  0
 33 59  1  0  0  0  0
 34 35  1  0  0  0  0
 34 60  1  0  0  0  0
 35 61  1  0  0  0  0
M  END
>  <PUBCHEM_COMPOUND_CID>
17755052

>  <PUBCHEM_COMPOUND_CANONICALIZED>
1

>  <PUBCHEM_CACTVS_COMPLEXITY>
832

>  <PUBCHEM_CACTVS_HBOND_ACCEPTOR>
10

>  <PUBCHEM_CACTVS_HBOND_DONOR>
1

>  <PUBCHEM_CACTVS_ROTATABLE_BOND>
5

>  <PUBCHEM_CACTVS_SUBSKEYS>
AAADceB7sABgAAAAAAAAAAAAAAAAAWJAAAA8WLEAAAAAAFgB/gAAHgQYQAAADAjh3wa/8fdrFAqmAzZnZHCTpKkhirBZuTw4ZJiKaKLg2dGXpAxomAL4yCcQgIAOgAAAQAASAAAAAACAACQAAAAAAAAAAA==

>  <PUBCHEM_IUPAC_OPENEYE_NAME>
4-[2-(1H-indazol-4-yl)-6-[(4-methylsulfonylpiperazin-1-yl)methyl]thieno[3,2-d]pyrimidin-4-yl]morpholine

>  <PUBCHEM_IUPAC_CAS_NAME>
4-[2-(1H-indazol-4-yl)-6-[(4-methylsulfonyl-1-piperazinyl)methyl]-4-thieno[3,2-d]pyrimidinyl]morpholine

>  <PUBCHEM_IUPAC_NAME>
4-[2-(1H-indazol-4-yl)-6-[(4-methylsulfonylpiperazin-1-yl)methyl]thieno[3,2-d]pyrimidin-4-yl]morpholine

>  <PUBCHEM_IUPAC_SYSTEMATIC_NAME>
4-[2-(1H-indazol-4-yl)-6-[(4-methylsulfonylpiperazin-1-yl)methyl]thieno[3,2-d]pyrimidin-4-yl]morpholine

>  <PUBCHEM_IUPAC_TRADITIONAL_NAME>
4-[2-(1H-indazol-4-yl)-6-[(4-mesylpiperazino)methyl]thieno[3,2-d]pyrimidin-4-yl]morpholine

>  <PUBCHEM_IUPAC_INCHI>
InChI=1S/C23H27N7O3S2/c1-35(31,32)30-7-5-28(6-8-30)15-16-13-20-21(34-16)23(29-9-11-33-12-10-29)26-22(25-20)17-3-2-4-19-18(17)14-24-27-19/h2-4,13-14H,5-12,15H2,1H3,(H,24,27)

>  <PUBCHEM_IUPAC_INCHIKEY>
LHNIIDJUOCFXAP-UHFFFAOYSA-N

>  <PUBCHEM_XLOGP3_AA>
1.6

>  <PUBCHEM_EXACT_MASS>
513.16168

>  <PUBCHEM_MOLECULAR_FORMULA>
C23H27N7O3S2

>  <PUBCHEM_MOLECULAR_WEIGHT>
513.63558

>  <PUBCHEM_OPENEYE_CAN_SMILES>
CS(=O)(=O)N1CCN(CC1)CC2=CC3=C(S2)C(=NC(=N3)C4=C5C=NNC5=CC=C4)N6CCOCC6

>  <PUBCHEM_OPENEYE_ISO_SMILES>
CS(=O)(=O)N1CCN(CC1)CC2=CC3=C(S2)C(=NC(=N3)C4=C5C=NNC5=CC=C4)N6CCOCC6

>  <PUBCHEM_CACTVS_TPSA>
144

>  <PUBCHEM_MONOISOTOPIC_WEIGHT>
513.16168

>  <PUBCHEM_TOTAL_CHARGE>
0

>  <PUBCHEM_HEAVY_ATOM_COUNT>
35

>  <PUBCHEM_ATOM_DEF_STEREO_COUNT>
0

>  <PUBCHEM_ATOM_UDEF_STEREO_COUNT>
0

>  <PUBCHEM_BOND_DEF_STEREO_COUNT>
0

>  <PUBCHEM_BOND_UDEF_STEREO_COUNT>
0

>  <PUBCHEM_ISOTOPIC_ATOM_COUNT>
0

>  <PUBCHEM_COMPONENT_COUNT>
1

>  <PUBCHEM_CACTVS_TAUTO_COUNT>
5

>  <PUBCHEM_COORDINATE_TYPE>
1
5
255

>  <PUBCHEM_BONDANNOTATIONS>
10  22  8
10  28  8
11  12  8
11  32  8
12  33  8
18  21  8
19  20  8
19  22  8
2  18  8
2  19  8
21  22  8
29  30  8
29  31  8
30  32  8
30  33  8
31  34  8
32  35  8
34  35  8
9  20  8
9  28  8

$$$$
